*SPEF "ieee 1481-1999"
*DESIGN "dff_behavioral"
*DATE "17:56:48 Saturday April 12, 2025"
*VENDOR "The OpenROAD Project"
*PROGRAM "OpenROAD"
*VERSION "b16bda7e82721d10566ff7e2b68f1ff0be9f9e38"
*DESIGN_FLOW "NAME_SCOPE LOCAL" "PIN_CAP NONE"
*DIVIDER /
*DELIMITER :
*BUS_DELIMITER []
*T_UNIT 1 NS
*C_UNIT 1 PF
*R_UNIT 1 OHM
*L_UNIT 1 HENRY

*NAME_MAP
*3 clear
*4 clk
*5 d
*6 q
*7 qbar
*8 _0_
*9 _1_
*10 _2_
*11 _3_
*12 clknet_0_clk
*13 clknet_1_0__leaf_clk
*14 clknet_1_1__leaf_clk
*15 net1
*16 net2
*17 net3
*18 net4
*19 FILLER_0_0_15
*20 FILLER_0_0_27
*21 FILLER_0_0_29
*22 FILLER_0_0_3
*23 FILLER_0_0_41
*24 FILLER_0_0_47
*25 FILLER_0_10_15
*26 FILLER_0_10_27
*27 FILLER_0_10_29
*28 FILLER_0_10_3
*29 FILLER_0_10_41
*30 FILLER_0_10_47
*31 FILLER_0_11_15
*32 FILLER_0_11_27
*33 FILLER_0_11_3
*34 FILLER_0_11_39
*35 FILLER_0_11_47
*36 FILLER_0_12_15
*37 FILLER_0_12_27
*38 FILLER_0_12_3
*39 FILLER_0_12_32
*40 FILLER_0_12_44
*41 FILLER_0_1_15
*42 FILLER_0_1_27
*43 FILLER_0_1_3
*44 FILLER_0_1_39
*45 FILLER_0_2_15
*46 FILLER_0_2_27
*47 FILLER_0_2_29
*48 FILLER_0_2_3
*49 FILLER_0_2_41
*50 FILLER_0_2_47
*51 FILLER_0_3_19
*52 FILLER_0_3_23
*53 FILLER_0_3_44
*54 FILLER_0_4_23
*55 FILLER_0_4_27
*56 FILLER_0_4_45
*57 FILLER_0_5_15
*58 FILLER_0_5_22
*59 FILLER_0_5_3
*60 FILLER_0_6_18
*61 FILLER_0_6_26
*62 FILLER_0_6_29
*63 FILLER_0_6_41
*64 FILLER_0_6_47
*65 FILLER_0_6_6
*66 FILLER_0_7_15
*67 FILLER_0_7_27
*68 FILLER_0_7_3
*69 FILLER_0_7_39
*70 FILLER_0_7_47
*71 FILLER_0_8_15
*72 FILLER_0_8_27
*73 FILLER_0_8_3
*74 FILLER_0_8_35
*75 FILLER_0_8_47
*76 FILLER_0_9_15
*77 FILLER_0_9_27
*78 FILLER_0_9_3
*79 FILLER_0_9_39
*80 FILLER_0_9_43
*81 FILLER_0_9_47
*82 PHY_EDGE_ROW_0_Left_13
*83 PHY_EDGE_ROW_0_Right_0
*84 PHY_EDGE_ROW_10_Left_23
*85 PHY_EDGE_ROW_10_Right_10
*86 PHY_EDGE_ROW_11_Left_24
*87 PHY_EDGE_ROW_11_Right_11
*88 PHY_EDGE_ROW_12_Left_25
*89 PHY_EDGE_ROW_12_Right_12
*90 PHY_EDGE_ROW_1_Left_14
*91 PHY_EDGE_ROW_1_Right_1
*92 PHY_EDGE_ROW_2_Left_15
*93 PHY_EDGE_ROW_2_Right_2
*94 PHY_EDGE_ROW_3_Left_16
*95 PHY_EDGE_ROW_3_Right_3
*96 PHY_EDGE_ROW_4_Left_17
*97 PHY_EDGE_ROW_4_Right_4
*98 PHY_EDGE_ROW_5_Left_18
*99 PHY_EDGE_ROW_5_Right_5
*100 PHY_EDGE_ROW_6_Left_19
*101 PHY_EDGE_ROW_6_Right_6
*102 PHY_EDGE_ROW_7_Left_20
*103 PHY_EDGE_ROW_7_Right_7
*104 PHY_EDGE_ROW_8_Left_21
*105 PHY_EDGE_ROW_8_Right_8
*106 PHY_EDGE_ROW_9_Left_22
*107 PHY_EDGE_ROW_9_Right_9
*108 TAP_TAPCELL_ROW_0_26
*109 TAP_TAPCELL_ROW_10_31
*110 TAP_TAPCELL_ROW_12_32
*111 TAP_TAPCELL_ROW_2_27
*112 TAP_TAPCELL_ROW_4_28
*113 TAP_TAPCELL_ROW_6_29
*114 TAP_TAPCELL_ROW_8_30
*115 _4_
*116 _5_
*117 _6_
*118 _7_
*119 _8_
*120 _9_
*121 clkbuf_0_clk
*122 clkbuf_1_0__f_clk
*123 clkbuf_1_1__f_clk
*124 input1
*125 input2
*126 output3
*127 output4

*PORTS
clear I
clk I
d I
q O
qbar O

*D_NET *3 0.000992826
*CONN
*P clear I
*I *124:A I *D sky130_fd_sc_hd__clkbuf_1
*CAP
1 clear 0.000496413
2 *124:A 0.000496413
3 *124:A *18:10 0
*RES
1 clear *124:A 24.9607 
*END

*D_NET *4 0.00173937
*CONN
*P clk I
*I *121:A I *D sky130_fd_sc_hd__clkbuf_16
*CAP
1 clk 0.000850608
2 *121:A 0.000850608
3 *121:A *119:CLK 0
4 *121:A *9:16 2.89016e-05
5 *121:A *12:14 9.25014e-06
6 *121:A *18:10 0
*RES
1 clk *121:A 29.7286 
*END

*D_NET *5 0.000506833
*CONN
*P d I
*I *125:A I *D sky130_fd_sc_hd__clkbuf_1
*CAP
1 d 0.000253417
2 *125:A 0.000253417
*RES
1 d *125:A 18.73 
*END

*D_NET *6 0.000403397
*CONN
*P q O
*I *126:X O *D sky130_fd_sc_hd__buf_1
*CAP
1 q 0.000201698
2 *126:X 0.000201698
*RES
1 *126:X q 18.0508 
*END

*D_NET *7 0.000517383
*CONN
*P qbar O
*I *127:X O *D sky130_fd_sc_hd__buf_1
*CAP
1 qbar 0.000258691
2 *127:X 0.000258691
*RES
1 *127:X qbar 19.2651 
*END

*D_NET *8 0.00088578
*CONN
*I *120:D I *D sky130_fd_sc_hd__dfxtp_1
*I *118:X O *D sky130_fd_sc_hd__clkbuf_1
*CAP
1 *120:D 0.000349559
2 *118:X 0.000349559
3 *120:D *122:A 0.000186662
4 *120:D *123:A 0
*RES
1 *118:X *120:D 34.1 
*END

*D_NET *9 0.00331551
*CONN
*I *119:D I *D sky130_fd_sc_hd__dfxtp_1
*I *116:X O *D sky130_fd_sc_hd__clkbuf_1
*CAP
1 *119:D 0
2 *116:X 0.00111182
3 *9:16 0.00111182
4 *9:16 *116:A 3.92854e-05
5 *9:16 *119:CLK 0.000100262
6 *9:16 *126:A 0
7 *9:16 *12:14 0.000505562
8 *9:16 *18:10 0.000417868
9 *121:A *9:16 2.89016e-05
*RES
1 *116:X *9:16 43.2464 
2 *9:16 *119:D 9.3 
*END

*D_NET *10 0.000835854
*CONN
*I *116:A I *D sky130_fd_sc_hd__clkbuf_1
*I *115:X O *D sky130_fd_sc_hd__or2b_1
*CAP
1 *116:A 0.000398284
2 *115:X 0.000398284
3 *116:A *18:10 0
4 *9:16 *116:A 3.92854e-05
*RES
1 *115:X *116:A 32.9571 
*END

*D_NET *11 0.000845889
*CONN
*I *118:A I *D sky130_fd_sc_hd__clkbuf_1
*I *117:X O *D sky130_fd_sc_hd__and2b_1
*CAP
1 *118:A 0.000422945
2 *117:X 0.000422945
*RES
1 *117:X *118:A 35.0464 
*END

*D_NET *12 0.00217946
*CONN
*I *123:A I *D sky130_fd_sc_hd__clkbuf_16
*I *122:A I *D sky130_fd_sc_hd__clkbuf_16
*I *121:X O *D sky130_fd_sc_hd__clkbuf_16
*CAP
1 *123:A 0.000223351
2 *122:A 8.27988e-05
3 *121:X 0.00040885
4 *12:14 0.000715
5 *123:A *120:CLK 4.79842e-05
6 *123:A *18:10 0
7 *12:14 *119:CLK 0
8 *12:14 *18:10 0
9 *120:D *122:A 0.000186662
10 *120:D *123:A 0
11 *121:A *12:14 9.25014e-06
12 *9:16 *12:14 0.000505562
*RES
1 *121:X *12:14 22.2821 
2 *12:14 *122:A 15.5679 
3 *12:14 *123:A 17.9071 
*END

*D_NET *13 0.00126993
*CONN
*I *119:CLK I *D sky130_fd_sc_hd__dfxtp_1
*I *122:X O *D sky130_fd_sc_hd__clkbuf_16
*CAP
1 *119:CLK 0.000584832
2 *122:X 0.000584832
3 *121:A *119:CLK 0
4 *9:16 *119:CLK 0.000100262
5 *12:14 *119:CLK 0
*RES
1 *122:X *119:CLK 35.2429 
*END

*D_NET *14 0.0011684
*CONN
*I *120:CLK I *D sky130_fd_sc_hd__dfxtp_1
*I *123:X O *D sky130_fd_sc_hd__clkbuf_16
*CAP
1 *120:CLK 0.00056021
2 *123:X 0.00056021
3 *120:CLK *18:10 0
4 *123:A *120:CLK 4.79842e-05
*RES
1 *123:X *120:CLK 34.7071 
*END

*D_NET *15 0.00150168
*CONN
*I *115:A I *D sky130_fd_sc_hd__or2b_1
*I *117:A_N I *D sky130_fd_sc_hd__and2b_1
*I *124:X O *D sky130_fd_sc_hd__clkbuf_1
*CAP
1 *115:A 0
2 *117:A_N 0.00020763
3 *124:X 0.000335313
4 *15:10 0.000542943
5 *117:A_N *115:B_N 5.76121e-05
6 *117:A_N *117:B 0
7 *15:10 *18:10 0.000358181
*RES
1 *124:X *15:10 26.6214 
2 *15:10 *117:A_N 12.2107 
3 *15:10 *115:A 9.3 
*END

*D_NET *16 0.00183429
*CONN
*I *117:B I *D sky130_fd_sc_hd__and2b_1
*I *115:B_N I *D sky130_fd_sc_hd__or2b_1
*I *125:X O *D sky130_fd_sc_hd__clkbuf_1
*CAP
1 *117:B 2.23854e-05
2 *115:B_N 0.000174125
3 *125:X 0.00069183
4 *16:12 0.00088834
5 *117:A_N *115:B_N 5.76121e-05
6 *117:A_N *117:B 0
*RES
1 *125:X *16:12 29.7821 
2 *16:12 *115:B_N 12.7286 
3 *16:12 *117:B 9.72857 
*END

*D_NET *17 0.000830026
*CONN
*I *126:A I *D sky130_fd_sc_hd__buf_1
*I *120:Q O *D sky130_fd_sc_hd__dfxtp_1
*CAP
1 *126:A 0.000415013
2 *120:Q 0.000415013
3 *9:16 *126:A 0
*RES
1 *120:Q *126:A 34.6357 
*END

*D_NET *18 0.0056102
*CONN
*I *127:A I *D sky130_fd_sc_hd__buf_1
*I *119:Q O *D sky130_fd_sc_hd__dfxtp_1
*CAP
1 *127:A 0.000306112
2 *119:Q 0.00211096
3 *18:10 0.00241707
4 *116:A *18:10 0
5 *120:CLK *18:10 0
6 *121:A *18:10 0
7 *123:A *18:10 0
8 *124:A *18:10 0
9 *9:16 *18:10 0.000417868
10 *12:14 *18:10 0
11 *15:10 *18:10 0.000358181
*RES
1 *119:Q *18:10 48.8357 
2 *18:10 *127:A 18.8536 
*END
