*SPEF "ieee 1481-1999"
*DESIGN "zero_to_five_counter"
*DATE "19:22:02 Thursday May 22, 2025"
*VENDOR "The OpenROAD Project"
*PROGRAM "OpenROAD"
*VERSION "b16bda7e82721d10566ff7e2b68f1ff0be9f9e38"
*DESIGN_FLOW "NAME_SCOPE LOCAL" "PIN_CAP NONE"
*DIVIDER /
*DELIMITER :
*BUS_DELIMITER []
*T_UNIT 1 NS
*C_UNIT 1 PF
*R_UNIT 1 OHM
*L_UNIT 1 HENRY

*NAME_MAP
*3 clk
*4 count[0]
*5 count[1]
*6 count[2]
*7 reset
*8 _000_
*9 _001_
*10 _002_
*11 _003_
*12 _004_
*13 _005_
*14 _006_
*15 _007_
*16 _008_
*17 _009_
*18 _010_
*19 _011_
*20 _012_
*21 _013_
*22 _014_
*23 _015_
*24 _016_
*25 _017_
*26 _018_
*27 _019_
*28 _020_
*29 _021_
*30 _022_
*31 _023_
*32 _024_
*33 _025_
*34 _026_
*35 _027_
*36 _028_
*37 _029_
*38 _030_
*39 _031_
*40 _032_
*41 _033_
*42 _034_
*43 _035_
*44 _036_
*45 _037_
*46 _038_
*47 _039_
*48 _040_
*49 _041_
*50 _042_
*51 _043_
*52 _044_
*53 _045_
*54 _046_
*55 _047_
*56 _048_
*57 _049_
*58 _050_
*59 _051_
*60 _052_
*61 _053_
*62 _054_
*63 _055_
*64 _056_
*65 _057_
*66 _058_
*67 _059_
*68 _060_
*69 _061_
*70 _062_
*71 _063_
*72 _064_
*73 _065_
*74 _066_
*75 _067_
*76 _068_
*77 _069_
*78 _070_
*79 _071_
*80 _072_
*81 _073_
*82 _074_
*83 _075_
*84 _076_
*85 _077_
*86 _078_
*87 _079_
*88 _080_
*89 _081_
*90 _082_
*91 _083_
*92 _084_
*93 _085_
*94 _086_
*95 _087_
*96 _088_
*97 _089_
*98 _090_
*99 _091_
*100 _092_
*101 _093_
*102 _094_
*103 _095_
*104 _096_
*105 _097_
*106 _098_
*107 _099_
*108 _100_
*109 _101_
*110 _102_
*111 _103_
*112 _104_
*113 _105_
*114 _106_
*115 _107_
*116 _108_
*117 _109_
*118 _110_
*119 _111_
*120 _112_
*121 _113_
*122 _114_
*123 _115_
*124 _116_
*125 _117_
*126 _118_
*127 _119_
*128 _120_
*129 _121_
*130 _122_
*131 _123_
*132 _124_
*133 _125_
*134 _126_
*135 _127_
*136 _128_
*137 _129_
*138 _130_
*139 _131_
*140 _132_
*141 _133_
*142 _134_
*143 _135_
*144 _136_
*145 _137_
*146 _138_
*147 _139_
*148 _140_
*149 _141_
*150 _142_
*151 _143_
*152 _144_
*153 _145_
*154 _146_
*155 _147_
*156 _148_
*157 _149_
*158 _150_
*159 _151_
*160 _152_
*161 _153_
*162 _154_
*163 _155_
*164 _156_
*165 _157_
*166 _158_
*167 _159_
*168 _160_
*169 _161_
*170 _162_
*171 _163_
*172 clknet_0_clk
*173 clknet_2_0__leaf_clk
*174 clknet_2_1__leaf_clk
*175 clknet_2_2__leaf_clk
*176 clknet_2_3__leaf_clk
*177 net1
*178 net2
*179 net3
*180 one_second_counter\[0\]
*181 one_second_counter\[10\]
*182 one_second_counter\[11\]
*183 one_second_counter\[12\]
*184 one_second_counter\[13\]
*185 one_second_counter\[14\]
*186 one_second_counter\[15\]
*187 one_second_counter\[16\]
*188 one_second_counter\[17\]
*189 one_second_counter\[18\]
*190 one_second_counter\[19\]
*191 one_second_counter\[1\]
*192 one_second_counter\[20\]
*193 one_second_counter\[21\]
*194 one_second_counter\[22\]
*195 one_second_counter\[23\]
*196 one_second_counter\[24\]
*197 one_second_counter\[25\]
*198 one_second_counter\[26\]
*199 one_second_counter\[2\]
*200 one_second_counter\[3\]
*201 one_second_counter\[4\]
*202 one_second_counter\[5\]
*203 one_second_counter\[6\]
*204 one_second_counter\[7\]
*205 one_second_counter\[8\]
*206 one_second_counter\[9\]
*207 ANTENNA_1
*208 ANTENNA_2
*209 ANTENNA_3
*210 FILLER_0_0_108
*211 FILLER_0_0_113
*212 FILLER_0_0_24
*213 FILLER_0_0_29
*214 FILLER_0_0_41
*215 FILLER_0_0_53
*216 FILLER_0_0_57
*217 FILLER_0_0_64
*218 FILLER_0_0_77
*219 FILLER_0_0_83
*220 FILLER_0_0_85
*221 FILLER_0_0_96
*222 FILLER_0_10_105
*223 FILLER_0_10_120
*224 FILLER_0_10_124
*225 FILLER_0_10_27
*226 FILLER_0_10_3
*227 FILLER_0_10_35
*228 FILLER_0_10_43
*229 FILLER_0_10_55
*230 FILLER_0_10_63
*231 FILLER_0_10_67
*232 FILLER_0_10_82
*233 FILLER_0_11_105
*234 FILLER_0_11_111
*235 FILLER_0_11_12
*236 FILLER_0_11_123
*237 FILLER_0_11_18
*238 FILLER_0_11_3
*239 FILLER_0_11_55
*240 FILLER_0_11_81
*241 FILLER_0_11_93
*242 FILLER_0_12_120
*243 FILLER_0_12_124
*244 FILLER_0_12_15
*245 FILLER_0_12_27
*246 FILLER_0_12_29
*247 FILLER_0_12_3
*248 FILLER_0_12_52
*249 FILLER_0_12_66
*250 FILLER_0_12_73
*251 FILLER_0_12_82
*252 FILLER_0_12_88
*253 FILLER_0_12_96
*254 FILLER_0_13_113
*255 FILLER_0_13_121
*256 FILLER_0_13_18
*257 FILLER_0_13_30
*258 FILLER_0_13_34
*259 FILLER_0_13_57
*260 FILLER_0_13_6
*261 FILLER_0_14_117
*262 FILLER_0_14_15
*263 FILLER_0_14_27
*264 FILLER_0_14_29
*265 FILLER_0_14_3
*266 FILLER_0_14_41
*267 FILLER_0_14_53
*268 FILLER_0_14_61
*269 FILLER_0_14_72
*270 FILLER_0_14_85
*271 FILLER_0_14_89
*272 FILLER_0_14_95
*273 FILLER_0_15_111
*274 FILLER_0_15_119
*275 FILLER_0_15_18
*276 FILLER_0_15_30
*277 FILLER_0_15_36
*278 FILLER_0_15_44
*279 FILLER_0_15_51
*280 FILLER_0_15_55
*281 FILLER_0_15_57
*282 FILLER_0_15_6
*283 FILLER_0_15_69
*284 FILLER_0_15_75
*285 FILLER_0_15_87
*286 FILLER_0_15_99
*287 FILLER_0_16_107
*288 FILLER_0_16_119
*289 FILLER_0_16_15
*290 FILLER_0_16_27
*291 FILLER_0_16_29
*292 FILLER_0_16_3
*293 FILLER_0_16_45
*294 FILLER_0_16_56
*295 FILLER_0_16_60
*296 FILLER_0_16_81
*297 FILLER_0_16_88
*298 FILLER_0_16_95
*299 FILLER_0_17_101
*300 FILLER_0_17_108
*301 FILLER_0_17_113
*302 FILLER_0_17_15
*303 FILLER_0_17_27
*304 FILLER_0_17_3
*305 FILLER_0_17_39
*306 FILLER_0_17_43
*307 FILLER_0_17_52
*308 FILLER_0_17_60
*309 FILLER_0_17_68
*310 FILLER_0_17_89
*311 FILLER_0_18_109
*312 FILLER_0_18_118
*313 FILLER_0_18_14
*314 FILLER_0_18_26
*315 FILLER_0_18_29
*316 FILLER_0_18_3
*317 FILLER_0_18_41
*318 FILLER_0_18_53
*319 FILLER_0_18_63
*320 FILLER_0_18_7
*321 FILLER_0_18_75
*322 FILLER_0_18_82
*323 FILLER_0_18_85
*324 FILLER_0_18_97
*325 FILLER_0_19_105
*326 FILLER_0_19_111
*327 FILLER_0_19_113
*328 FILLER_0_19_20
*329 FILLER_0_19_32
*330 FILLER_0_19_40
*331 FILLER_0_19_47
*332 FILLER_0_19_55
*333 FILLER_0_19_57
*334 FILLER_0_19_69
*335 FILLER_0_19_81
*336 FILLER_0_19_93
*337 FILLER_0_1_113
*338 FILLER_0_1_121
*339 FILLER_0_1_15
*340 FILLER_0_1_3
*341 FILLER_0_1_44
*342 FILLER_0_1_57
*343 FILLER_0_1_69
*344 FILLER_0_1_77
*345 FILLER_0_1_89
*346 FILLER_0_20_102
*347 FILLER_0_20_11
*348 FILLER_0_20_110
*349 FILLER_0_20_122
*350 FILLER_0_20_17
*351 FILLER_0_20_24
*352 FILLER_0_20_29
*353 FILLER_0_20_3
*354 FILLER_0_20_42
*355 FILLER_0_20_56
*356 FILLER_0_20_64
*357 FILLER_0_20_77
*358 FILLER_0_20_81
*359 FILLER_0_20_85
*360 FILLER_0_20_98
*361 FILLER_0_21_11
*362 FILLER_0_21_110
*363 FILLER_0_21_113
*364 FILLER_0_21_120
*365 FILLER_0_21_124
*366 FILLER_0_21_18
*367 FILLER_0_21_3
*368 FILLER_0_21_30
*369 FILLER_0_21_42
*370 FILLER_0_21_54
*371 FILLER_0_21_80
*372 FILLER_0_22_10
*373 FILLER_0_22_113
*374 FILLER_0_22_17
*375 FILLER_0_22_25
*376 FILLER_0_22_29
*377 FILLER_0_22_3
*378 FILLER_0_22_37
*379 FILLER_0_22_43
*380 FILLER_0_22_47
*381 FILLER_0_22_51
*382 FILLER_0_22_82
*383 FILLER_0_22_90
*384 FILLER_0_23_111
*385 FILLER_0_23_113
*386 FILLER_0_23_13
*387 FILLER_0_23_25
*388 FILLER_0_23_37
*389 FILLER_0_23_43
*390 FILLER_0_23_52
*391 FILLER_0_23_6
*392 FILLER_0_24_105
*393 FILLER_0_24_114
*394 FILLER_0_24_122
*395 FILLER_0_24_15
*396 FILLER_0_24_27
*397 FILLER_0_24_29
*398 FILLER_0_24_3
*399 FILLER_0_24_37
*400 FILLER_0_24_82
*401 FILLER_0_25_113
*402 FILLER_0_25_15
*403 FILLER_0_25_3
*404 FILLER_0_25_32
*405 FILLER_0_25_44
*406 FILLER_0_25_57
*407 FILLER_0_25_65
*408 FILLER_0_25_69
*409 FILLER_0_25_76
*410 FILLER_0_25_88
*411 FILLER_0_26_102
*412 FILLER_0_26_107
*413 FILLER_0_26_111
*414 FILLER_0_26_115
*415 FILLER_0_26_123
*416 FILLER_0_26_18
*417 FILLER_0_26_36
*418 FILLER_0_26_59
*419 FILLER_0_26_6
*420 FILLER_0_26_71
*421 FILLER_0_26_83
*422 FILLER_0_26_85
*423 FILLER_0_26_93
*424 FILLER_0_27_104
*425 FILLER_0_27_15
*426 FILLER_0_27_27
*427 FILLER_0_27_3
*428 FILLER_0_27_35
*429 FILLER_0_27_57
*430 FILLER_0_27_65
*431 FILLER_0_27_73
*432 FILLER_0_27_85
*433 FILLER_0_27_97
*434 FILLER_0_28_107
*435 FILLER_0_28_114
*436 FILLER_0_28_23
*437 FILLER_0_28_27
*438 FILLER_0_28_29
*439 FILLER_0_28_62
*440 FILLER_0_28_8
*441 FILLER_0_28_94
*442 FILLER_0_29_11
*443 FILLER_0_29_111
*444 FILLER_0_29_113
*445 FILLER_0_29_15
*446 FILLER_0_29_27
*447 FILLER_0_29_3
*448 FILLER_0_29_39
*449 FILLER_0_29_51
*450 FILLER_0_29_55
*451 FILLER_0_29_57
*452 FILLER_0_29_70
*453 FILLER_0_29_99
*454 FILLER_0_2_105
*455 FILLER_0_2_117
*456 FILLER_0_2_15
*457 FILLER_0_2_26
*458 FILLER_0_2_3
*459 FILLER_0_2_32
*460 FILLER_0_2_44
*461 FILLER_0_2_53
*462 FILLER_0_2_65
*463 FILLER_0_2_71
*464 FILLER_0_2_77
*465 FILLER_0_30_100
*466 FILLER_0_30_112
*467 FILLER_0_30_118
*468 FILLER_0_30_16
*469 FILLER_0_30_23
*470 FILLER_0_30_27
*471 FILLER_0_30_29
*472 FILLER_0_30_3
*473 FILLER_0_30_44
*474 FILLER_0_30_56
*475 FILLER_0_30_68
*476 FILLER_0_30_80
*477 FILLER_0_30_85
*478 FILLER_0_30_93
*479 FILLER_0_31_109
*480 FILLER_0_31_11
*481 FILLER_0_31_116
*482 FILLER_0_31_124
*483 FILLER_0_31_3
*484 FILLER_0_31_52
*485 FILLER_0_31_57
*486 FILLER_0_31_69
*487 FILLER_0_31_81
*488 FILLER_0_31_85
*489 FILLER_0_31_97
*490 FILLER_0_3_105
*491 FILLER_0_3_110
*492 FILLER_0_3_113
*493 FILLER_0_3_121
*494 FILLER_0_3_19
*495 FILLER_0_3_3
*496 FILLER_0_3_31
*497 FILLER_0_3_37
*498 FILLER_0_3_41
*499 FILLER_0_3_53
*500 FILLER_0_3_57
*501 FILLER_0_3_69
*502 FILLER_0_3_7
*503 FILLER_0_3_81
*504 FILLER_0_3_93
*505 FILLER_0_4_101
*506 FILLER_0_4_11
*507 FILLER_0_4_122
*508 FILLER_0_4_23
*509 FILLER_0_4_27
*510 FILLER_0_4_29
*511 FILLER_0_4_3
*512 FILLER_0_4_35
*513 FILLER_0_4_43
*514 FILLER_0_4_49
*515 FILLER_0_4_55
*516 FILLER_0_4_65
*517 FILLER_0_4_77
*518 FILLER_0_4_83
*519 FILLER_0_4_85
*520 FILLER_0_4_97
*521 FILLER_0_5_104
*522 FILLER_0_5_118
*523 FILLER_0_5_123
*524 FILLER_0_5_31
*525 FILLER_0_5_46
*526 FILLER_0_5_54
*527 FILLER_0_5_6
*528 FILLER_0_5_80
*529 FILLER_0_5_92
*530 FILLER_0_6_109
*531 FILLER_0_6_121
*532 FILLER_0_6_26
*533 FILLER_0_6_29
*534 FILLER_0_6_60
*535 FILLER_0_6_72
*536 FILLER_0_6_85
*537 FILLER_0_6_97
*538 FILLER_0_7_107
*539 FILLER_0_7_111
*540 FILLER_0_7_118
*541 FILLER_0_7_124
*542 FILLER_0_7_43
*543 FILLER_0_7_55
*544 FILLER_0_7_57
*545 FILLER_0_7_69
*546 FILLER_0_7_75
*547 FILLER_0_7_83
*548 FILLER_0_7_95
*549 FILLER_0_8_105
*550 FILLER_0_8_117
*551 FILLER_0_8_13
*552 FILLER_0_8_25
*553 FILLER_0_8_29
*554 FILLER_0_8_3
*555 FILLER_0_8_37
*556 FILLER_0_8_63
*557 FILLER_0_8_72
*558 FILLER_0_8_9
*559 FILLER_0_8_99
*560 FILLER_0_9_101
*561 FILLER_0_9_109
*562 FILLER_0_9_113
*563 FILLER_0_9_3
*564 FILLER_0_9_36
*565 FILLER_0_9_48
*566 FILLER_0_9_57
*567 FILLER_0_9_65
*568 FILLER_0_9_71
*569 FILLER_0_9_77
*570 PHY_EDGE_ROW_0_Left_32
*571 PHY_EDGE_ROW_0_Right_0
*572 PHY_EDGE_ROW_10_Left_42
*573 PHY_EDGE_ROW_10_Right_10
*574 PHY_EDGE_ROW_11_Left_43
*575 PHY_EDGE_ROW_11_Right_11
*576 PHY_EDGE_ROW_12_Left_44
*577 PHY_EDGE_ROW_12_Right_12
*578 PHY_EDGE_ROW_13_Left_45
*579 PHY_EDGE_ROW_13_Right_13
*580 PHY_EDGE_ROW_14_Left_46
*581 PHY_EDGE_ROW_14_Right_14
*582 PHY_EDGE_ROW_15_Left_47
*583 PHY_EDGE_ROW_15_Right_15
*584 PHY_EDGE_ROW_16_Left_48
*585 PHY_EDGE_ROW_16_Right_16
*586 PHY_EDGE_ROW_17_Left_49
*587 PHY_EDGE_ROW_17_Right_17
*588 PHY_EDGE_ROW_18_Left_50
*589 PHY_EDGE_ROW_18_Right_18
*590 PHY_EDGE_ROW_19_Left_51
*591 PHY_EDGE_ROW_19_Right_19
*592 PHY_EDGE_ROW_1_Left_33
*593 PHY_EDGE_ROW_1_Right_1
*594 PHY_EDGE_ROW_20_Left_52
*595 PHY_EDGE_ROW_20_Right_20
*596 PHY_EDGE_ROW_21_Left_53
*597 PHY_EDGE_ROW_21_Right_21
*598 PHY_EDGE_ROW_22_Left_54
*599 PHY_EDGE_ROW_22_Right_22
*600 PHY_EDGE_ROW_23_Left_55
*601 PHY_EDGE_ROW_23_Right_23
*602 PHY_EDGE_ROW_24_Left_56
*603 PHY_EDGE_ROW_24_Right_24
*604 PHY_EDGE_ROW_25_Left_57
*605 PHY_EDGE_ROW_25_Right_25
*606 PHY_EDGE_ROW_26_Left_58
*607 PHY_EDGE_ROW_26_Right_26
*608 PHY_EDGE_ROW_27_Left_59
*609 PHY_EDGE_ROW_27_Right_27
*610 PHY_EDGE_ROW_28_Left_60
*611 PHY_EDGE_ROW_28_Right_28
*612 PHY_EDGE_ROW_29_Left_61
*613 PHY_EDGE_ROW_29_Right_29
*614 PHY_EDGE_ROW_2_Left_34
*615 PHY_EDGE_ROW_2_Right_2
*616 PHY_EDGE_ROW_30_Left_62
*617 PHY_EDGE_ROW_30_Right_30
*618 PHY_EDGE_ROW_31_Left_63
*619 PHY_EDGE_ROW_31_Right_31
*620 PHY_EDGE_ROW_3_Left_35
*621 PHY_EDGE_ROW_3_Right_3
*622 PHY_EDGE_ROW_4_Left_36
*623 PHY_EDGE_ROW_4_Right_4
*624 PHY_EDGE_ROW_5_Left_37
*625 PHY_EDGE_ROW_5_Right_5
*626 PHY_EDGE_ROW_6_Left_38
*627 PHY_EDGE_ROW_6_Right_6
*628 PHY_EDGE_ROW_7_Left_39
*629 PHY_EDGE_ROW_7_Right_7
*630 PHY_EDGE_ROW_8_Left_40
*631 PHY_EDGE_ROW_8_Right_8
*632 PHY_EDGE_ROW_9_Left_41
*633 PHY_EDGE_ROW_9_Right_9
*634 TAP_TAPCELL_ROW_0_64
*635 TAP_TAPCELL_ROW_0_65
*636 TAP_TAPCELL_ROW_0_66
*637 TAP_TAPCELL_ROW_0_67
*638 TAP_TAPCELL_ROW_10_86
*639 TAP_TAPCELL_ROW_10_87
*640 TAP_TAPCELL_ROW_11_88
*641 TAP_TAPCELL_ROW_11_89
*642 TAP_TAPCELL_ROW_12_90
*643 TAP_TAPCELL_ROW_12_91
*644 TAP_TAPCELL_ROW_13_92
*645 TAP_TAPCELL_ROW_13_93
*646 TAP_TAPCELL_ROW_14_94
*647 TAP_TAPCELL_ROW_14_95
*648 TAP_TAPCELL_ROW_15_96
*649 TAP_TAPCELL_ROW_15_97
*650 TAP_TAPCELL_ROW_16_98
*651 TAP_TAPCELL_ROW_16_99
*652 TAP_TAPCELL_ROW_17_100
*653 TAP_TAPCELL_ROW_17_101
*654 TAP_TAPCELL_ROW_18_102
*655 TAP_TAPCELL_ROW_18_103
*656 TAP_TAPCELL_ROW_19_104
*657 TAP_TAPCELL_ROW_19_105
*658 TAP_TAPCELL_ROW_1_68
*659 TAP_TAPCELL_ROW_1_69
*660 TAP_TAPCELL_ROW_20_106
*661 TAP_TAPCELL_ROW_20_107
*662 TAP_TAPCELL_ROW_21_108
*663 TAP_TAPCELL_ROW_21_109
*664 TAP_TAPCELL_ROW_22_110
*665 TAP_TAPCELL_ROW_22_111
*666 TAP_TAPCELL_ROW_23_112
*667 TAP_TAPCELL_ROW_23_113
*668 TAP_TAPCELL_ROW_24_114
*669 TAP_TAPCELL_ROW_24_115
*670 TAP_TAPCELL_ROW_25_116
*671 TAP_TAPCELL_ROW_25_117
*672 TAP_TAPCELL_ROW_26_118
*673 TAP_TAPCELL_ROW_26_119
*674 TAP_TAPCELL_ROW_27_120
*675 TAP_TAPCELL_ROW_27_121
*676 TAP_TAPCELL_ROW_28_122
*677 TAP_TAPCELL_ROW_28_123
*678 TAP_TAPCELL_ROW_29_124
*679 TAP_TAPCELL_ROW_29_125
*680 TAP_TAPCELL_ROW_2_70
*681 TAP_TAPCELL_ROW_2_71
*682 TAP_TAPCELL_ROW_30_126
*683 TAP_TAPCELL_ROW_30_127
*684 TAP_TAPCELL_ROW_31_128
*685 TAP_TAPCELL_ROW_31_129
*686 TAP_TAPCELL_ROW_31_130
*687 TAP_TAPCELL_ROW_31_131
*688 TAP_TAPCELL_ROW_3_72
*689 TAP_TAPCELL_ROW_3_73
*690 TAP_TAPCELL_ROW_4_74
*691 TAP_TAPCELL_ROW_4_75
*692 TAP_TAPCELL_ROW_5_76
*693 TAP_TAPCELL_ROW_5_77
*694 TAP_TAPCELL_ROW_6_78
*695 TAP_TAPCELL_ROW_6_79
*696 TAP_TAPCELL_ROW_7_80
*697 TAP_TAPCELL_ROW_7_81
*698 TAP_TAPCELL_ROW_8_82
*699 TAP_TAPCELL_ROW_8_83
*700 TAP_TAPCELL_ROW_9_84
*701 TAP_TAPCELL_ROW_9_85
*702 _164_
*703 _165_
*704 _166_
*705 _167_
*706 _168_
*707 _169_
*708 _170_
*709 _171_
*710 _172_
*711 _173_
*712 _174_
*713 _175_
*714 _176_
*715 _177_
*716 _178_
*717 _179_
*718 _180_
*719 _181_
*720 _182_
*721 _183_
*722 _184_
*723 _185_
*724 _186_
*725 _187_
*726 _188_
*727 _189_
*728 _190_
*729 _191_
*730 _192_
*731 _193_
*732 _194_
*733 _195_
*734 _196_
*735 _197_
*736 _198_
*737 _199_
*738 _200_
*739 _201_
*740 _202_
*741 _203_
*742 _204_
*743 _205_
*744 _206_
*745 _207_
*746 _208_
*747 _209_
*748 _210_
*749 _211_
*750 _212_
*751 _213_
*752 _214_
*753 _215_
*754 _216_
*755 _217_
*756 _218_
*757 _219_
*758 _220_
*759 _221_
*760 _222_
*761 _223_
*762 _224_
*763 _225_
*764 _226_
*765 _227_
*766 _228_
*767 _229_
*768 _230_
*769 _231_
*770 _232_
*771 _233_
*772 _234_
*773 _235_
*774 _236_
*775 _237_
*776 _238_
*777 _239_
*778 _240_
*779 _241_
*780 _242_
*781 _243_
*782 _244_
*783 _245_
*784 _246_
*785 _247_
*786 _248_
*787 _249_
*788 _250_
*789 _251_
*790 _252_
*791 _253_
*792 _254_
*793 _255_
*794 _256_
*795 _257_
*796 _258_
*797 _259_
*798 _260_
*799 _261_
*800 _262_
*801 _263_
*802 _264_
*803 _265_
*804 _266_
*805 _267_
*806 _268_
*807 _269_
*808 _270_
*809 _271_
*810 _272_
*811 _273_
*812 _274_
*813 _275_
*814 _276_
*815 _277_
*816 _278_
*817 _279_
*818 _280_
*819 _281_
*820 _282_
*821 _283_
*822 _284_
*823 _285_
*824 _286_
*825 _287_
*826 _288_
*827 _289_
*828 _290_
*829 _291_
*830 _292_
*831 _293_
*832 _294_
*833 _295_
*834 _296_
*835 _297_
*836 _298_
*837 _299_
*838 _300_
*839 _301_
*840 _302_
*841 _303_
*842 _304_
*843 _305_
*844 _306_
*845 _307_
*846 _308_
*847 _309_
*848 _310_
*849 _311_
*850 _312_
*851 _313_
*852 _314_
*853 _315_
*854 _316_
*855 _317_
*856 _318_
*857 _319_
*858 _320_
*859 _321_
*860 _322_
*861 _323_
*862 _324_
*863 _325_
*864 _326_
*865 _327_
*866 _328_
*867 _329_
*868 _330_
*869 _331_
*870 _332_
*871 _333_
*872 _334_
*873 _335_
*874 _336_
*875 _337_
*876 _338_
*877 _339_
*878 _340_
*879 _341_
*880 _342_
*881 _343_
*882 _344_
*883 _345_
*884 _346_
*885 _347_
*886 _348_
*887 _349_
*888 _350_
*889 _351_
*890 _352_
*891 _353_
*892 _354_
*893 _355_
*894 _356_
*895 _357_
*896 clkbuf_0_clk
*897 clkbuf_2_0__f_clk
*898 clkbuf_2_1__f_clk
*899 clkbuf_2_2__f_clk
*900 clkbuf_2_3__f_clk
*901 clkload0
*902 clkload1
*903 clkload2
*904 output1
*905 output2
*906 output3

*PORTS
clk I
count[0] O
count[1] O
count[2] O
reset I

*D_NET *3 0.00574597
*CONN
*P clk I
*I *896:A I *D sky130_fd_sc_hd__clkbuf_16
*CAP
1 clk 0.00172257
2 *896:A 0.00172257
3 *896:A *706:A 3.25102e-05
4 *896:A *745:B 0.000909176
5 *896:A *768:B1 0
6 *896:A *886:D 0.000589288
7 *896:A *895:RESET_B 1.88602e-05
8 *896:A *63:18 0.000570499
9 *896:A *188:46 0.000121263
10 *896:A *197:53 1.88602e-05
11 *896:A *205:65 4.03822e-05
*RES
1 clk *896:A 8.38837 
*END

*D_NET *4 0.000732529
*CONN
*P count[0] O
*I *904:X O *D sky130_fd_sc_hd__buf_1
*CAP
1 count[0] 0.000337122
2 *904:X 0.000337122
3 count[0] *904:A 5.8286e-05
*RES
1 *904:X count[0] 5.86677 
*END

*D_NET *5 0.000759112
*CONN
*P count[1] O
*I *905:X O *D sky130_fd_sc_hd__buf_1
*CAP
1 count[1] 0.000318162
2 *905:X 0.000318162
3 count[1] *8:16 0.000105991
4 count[1] *206:18 1.67975e-05
*RES
1 *905:X count[1] 7.40543 
*END

*D_NET *6 0.000817409
*CONN
*P count[2] O
*I *906:X O *D sky130_fd_sc_hd__buf_1
*CAP
1 count[2] 0.000337577
2 *906:X 0.000337577
3 count[2] *812:A1 9.39515e-05
4 count[2] *22:28 0
5 count[2] *195:76 4.83032e-05
*RES
1 *906:X count[2] 5.86677 
*END

*D_NET *7 0.0144515
*CONN
*P reset I
*I *844:A I *D sky130_fd_sc_hd__buf_4
*I *833:A I *D sky130_fd_sc_hd__buf_4
*I *855:A I *D sky130_fd_sc_hd__buf_4
*CAP
1 reset 0.00100035
2 *844:A 0
3 *833:A 0.00211971
4 *855:A 0.000136283
5 *7:19 0.00290455
6 *7:7 0.00164891
7 *833:A *738:B 0.000119523
8 *833:A *815:B 9.84109e-05
9 *833:A *823:A2 0.000100235
10 *833:A *866:D 0.00248235
11 *833:A *870:D 2.38661e-05
12 *833:A *873:RESET_B 0
13 *833:A *886:D 0.000887957
14 *833:A *890:RESET_B 4.03822e-05
15 *833:A *95:38 0.000119523
16 *833:A *177:55 2.03757e-05
17 *833:A *179:68 9.70595e-05
18 *833:A *191:35 2.73622e-06
19 *855:A *822:A 2.03356e-05
20 *855:A *838:A 7.29142e-05
21 *7:7 *749:A 5.88561e-05
22 *7:7 *884:RESET_B 0
23 *7:7 *68:28 0
24 *7:7 *90:132 5.84546e-05
25 *7:7 *129:32 0
26 *7:7 *167:18 0.00021126
27 *7:19 *764:A 0.00107411
28 *7:19 *764:B 0.000488857
29 *7:19 *822:A 0.000335716
30 *7:19 *838:A 4.87465e-06
31 *7:19 *885:RESET_B 1.7395e-05
32 *7:19 *68:28 0
33 *7:19 *84:135 8.23457e-05
34 *7:19 *167:18 0.000224121
*RES
1 reset *7:7 16.965 
2 *7:7 *7:19 18.59 
3 *7:19 *855:A 3.79 
4 *7:19 *833:A 15.414 
5 *7:7 *844:A 3.6 
*END

*D_NET *8 0.0146504
*CONN
*I *869:D I *D sky130_fd_sc_hd__dfrtp_4
*I *814:X O *D sky130_fd_sc_hd__buf_1
*CAP
1 *869:D 0.000868687
2 *814:X 0.000792932
3 *8:16 0.00244899
4 *8:8 0.00237323
5 *869:D *717:A 0.000120655
6 *869:D *717:B 0.000120182
7 *869:D *774:A 0.00171422
8 *869:D *869:CLK 0.000130401
9 *869:D *206:18 7.12454e-06
10 *8:8 *780:A1 0.000120655
11 *8:8 *780:A2 0.000444142
12 *8:8 *854:A 2.68464e-05
13 *8:8 *884:D 0
14 *8:8 *885:RESET_B 1.17409e-05
15 *8:8 *162:138 6.46469e-05
16 *8:16 *795:C 0
17 *8:16 *868:D 0
18 *8:16 *884:D 0.001573
19 *8:16 *885:D 0.000338096
20 *8:16 *14:38 0
21 *8:16 *27:20 0
22 *8:16 *47:20 0.00338887
23 *8:16 *88:30 0
24 *8:16 *195:76 0
25 count[1] *8:16 0.000105991
*RES
1 *814:X *8:8 13.71 
2 *8:8 *8:16 48.305 
3 *8:16 *869:D 20.71 
*END

*D_NET *9 0.00403212
*CONN
*I *879:D I *D sky130_fd_sc_hd__dfrtp_2
*I *750:X O *D sky130_fd_sc_hd__clkbuf_1
*CAP
1 *879:D 0.000807624
2 *750:X 0.000807624
3 *879:D *716:B 0
4 *879:D *778:A 0.000503297
5 *879:D *834:A 0.000181103
6 *879:D *877:RESET_B 5.05066e-06
7 *879:D *881:D 0.00101949
8 *879:D *114:32 3.77958e-05
9 *879:D *161:12 0.000282559
10 *879:D *161:70 0.000147511
11 *879:D *173:65 0.000202774
12 *879:D *181:10 0
13 *879:D *183:14 3.72916e-05
*RES
1 *750:X *879:D 30.135 
*END

*D_NET *10 0.00336029
*CONN
*I *880:D I *D sky130_fd_sc_hd__dfrtp_1
*I *755:X O *D sky130_fd_sc_hd__clkbuf_1
*CAP
1 *880:D 0.000493932
2 *755:X 0.000493932
3 *880:D *762:A_N 0.000846476
4 *880:D *773:B 0.000248197
5 *880:D *892:D 3.93162e-05
6 *880:D *161:8 5.82669e-05
7 *880:D *173:114 0.000227078
8 *880:D *182:6 9.57985e-05
9 *880:D *182:51 0.000857291
*RES
1 *755:X *880:D 17.81 
*END

*D_NET *11 0.0120303
*CONN
*I *881:D I *D sky130_fd_sc_hd__dfrtp_4
*I *759:X O *D sky130_fd_sc_hd__buf_1
*CAP
1 *881:D 0.00285321
2 *759:X 0.00285321
3 *881:D *711:C 0.000101861
4 *881:D *717:B 2.98132e-05
5 *881:D *737:A 0.000140668
6 *881:D *750:A 0.000208737
7 *881:D *762:C 1.94256e-05
8 *881:D *778:A 9.88172e-06
9 *881:D *785:C 4.77311e-05
10 *881:D *791:A 6.31891e-05
11 *881:D *811:A 4.12303e-05
12 *881:D *825:A 0.000159874
13 *881:D *827:B 8.45812e-05
14 *881:D *834:A 0.000580509
15 *881:D *869:RESET_B 7.98062e-05
16 *881:D *873:RESET_B 7.48122e-05
17 *881:D *880:RESET_B 0
18 *881:D *881:RESET_B 0
19 *881:D *892:RESET_B 0
20 *881:D *22:28 0.000232092
21 *881:D *76:28 0.000465839
22 *881:D *83:101 0.000495573
23 *881:D *84:92 0.000105176
24 *881:D *88:30 0.000191541
25 *881:D *144:16 9.95375e-05
26 *881:D *158:18 0.000127191
27 *881:D *163:78 0.000368658
28 *881:D *171:16 0.000103444
29 *881:D *172:16 0.000511308
30 *881:D *172:56 0.00056884
31 *881:D *174:97 5.56633e-06
32 *881:D *177:55 3.82789e-05
33 *881:D *181:50 0
34 *881:D *184:14 3.92756e-05
35 *881:D *184:37 5.2574e-05
36 *881:D *199:53 0.000232642
37 *881:D *200:18 2.47078e-05
38 *879:D *881:D 0.00101949
*RES
1 *759:X *881:D 34.7967 
*END

*D_NET *12 0.00360514
*CONN
*I *882:D I *D sky130_fd_sc_hd__dfrtp_1
*I *763:X O *D sky130_fd_sc_hd__clkbuf_1
*CAP
1 *882:D 0.000963732
2 *763:X 0.000963732
3 *882:D *780:A1 0
4 *882:D *783:A 4.43951e-05
5 *882:D *783:B 0.000118081
6 *882:D *785:A_N 0
7 *882:D *785:C 0.000656522
8 *882:D *788:B 0.000194694
9 *882:D *794:A 1.65192e-05
10 *882:D *818:A 3.50033e-05
11 *882:D *882:CLK 7.10578e-05
12 *882:D *890:D 0.000156911
13 *882:D *19:22 0.000154266
14 *882:D *125:6 0.000118081
15 *882:D *201:72 0.000112147
*RES
1 *763:X *882:D 26.955 
*END

*D_NET *13 0.00692266
*CONN
*I *883:D I *D sky130_fd_sc_hd__dfrtp_1
*I *765:X O *D sky130_fd_sc_hd__o211a_1
*CAP
1 *883:D 0.00122739
2 *765:X 0.00122739
3 *883:D *707:B 2.75145e-05
4 *883:D *709:B 6.75156e-05
5 *883:D *709:C 0.00082141
6 *883:D *761:A 3.69914e-05
7 *883:D *764:B 0.000942764
8 *883:D *777:B 0.00019072
9 *883:D *791:A 0.000136356
10 *883:D *796:B1 1.79483e-05
11 *883:D *822:A 0.000397988
12 *883:D *824:C 0.000145792
13 *883:D *866:D 3.12639e-05
14 *883:D *873:RESET_B 0
15 *883:D *887:RESET_B 1.92979e-05
16 *883:D *108:27 0.000977659
17 *883:D *128:37 1.90973e-05
18 *883:D *186:14 5.69919e-05
19 *883:D *193:20 1.03592e-05
20 *883:D *193:26 0.000519925
21 *883:D *202:37 4.82863e-05
*RES
1 *765:X *883:D 39.93 
*END

*D_NET *14 0.0131322
*CONN
*I *884:D I *D sky130_fd_sc_hd__dfrtp_1
*I *770:X O *D sky130_fd_sc_hd__buf_1
*CAP
1 *884:D 0.00149749
2 *770:X 0.00187908
3 *14:38 0.00337657
4 *884:D *713:A 0.000234181
5 *884:D *718:A2 1.47347e-05
6 *884:D *780:A1 0.000260906
7 *884:D *785:B 3.99879e-05
8 *884:D *785:C 3.23663e-05
9 *884:D *830:A1 0.000198945
10 *884:D *884:CLK 0.000214175
11 *884:D *889:RESET_B 0
12 *884:D *890:CLK 9.83305e-05
13 *884:D *904:A 0
14 *884:D *27:16 0.00120612
15 *884:D *88:30 0
16 *884:D *201:31 4.82863e-05
17 *14:38 *751:B 4.00541e-06
18 *14:38 *752:D 0.000242478
19 *14:38 *756:A 0
20 *14:38 *795:C 8.1057e-05
21 *14:38 *827:A 0
22 *14:38 *876:RESET_B 0.000131673
23 *14:38 *889:RESET_B 0.00052
24 *14:38 *88:30 0.000406517
25 *14:38 *109:12 6.71882e-05
26 *14:38 *122:26 0.000154715
27 *14:38 *195:76 0.000834794
28 *14:38 *206:18 1.55583e-05
29 *8:8 *884:D 0
30 *8:16 *884:D 0.001573
31 *8:16 *14:38 0
*RES
1 *770:X *14:38 37.4739 
2 *14:38 *884:D 41.1975 
*END

*D_NET *15 0.0188427
*CONN
*I *885:D I *D sky130_fd_sc_hd__dfrtp_1
*I *774:X O *D sky130_fd_sc_hd__buf_1
*CAP
1 *885:D 0.00557817
2 *774:X 0.00557817
3 *885:D *714:B 0.00230676
4 *885:D *717:A 7.43727e-06
5 *885:D *794:A 0.000223988
6 *885:D *812:A1 0.000507372
7 *885:D *868:D 0.00283815
8 *885:D *876:RESET_B 0.000248105
9 *885:D *877:RESET_B 0.000356367
10 *885:D *883:RESET_B 4.1977e-05
11 *885:D *884:RESET_B 0.000229395
12 *885:D *885:CLK 0.000117678
13 *885:D *904:A 8.5728e-05
14 *885:D *47:20 0.000323801
15 *885:D *175:64 3.97211e-05
16 *885:D *195:76 2.17353e-05
17 *8:16 *885:D 0.000338096
*RES
1 *774:X *885:D 24.88 
*END

*D_NET *16 0.0176784
*CONN
*I *886:D I *D sky130_fd_sc_hd__dfrtp_4
*I *778:X O *D sky130_fd_sc_hd__buf_1
*CAP
1 *886:D 0.0052651
2 *778:X 0.0052651
3 *886:D *705:B 0.000721051
4 *886:D *711:B 0
5 *886:D *716:B 1.7635e-05
6 *886:D *730:C 5.79947e-05
7 *886:D *738:B 0.000146361
8 *886:D *741:A 4.22933e-05
9 *886:D *745:B 0.00016366
10 *886:D *763:A 0
11 *886:D *782:A 0.000101037
12 *886:D *789:A_N 4.01961e-05
13 *886:D *797:A_N 0.000143229
14 *886:D *798:A 0.000325736
15 *886:D *802:A 0.00015391
16 *886:D *873:RESET_B 0.000301617
17 *886:D *887:D 0.000962449
18 *886:D *63:18 0.000205935
19 *886:D *84:69 0.000105649
20 *886:D *95:38 0.000318727
21 *886:D *113:32 1.34687e-05
22 *886:D *114:32 1.84465e-05
23 *886:D *169:16 0.000303131
24 *886:D *179:68 0.000604737
25 *886:D *180:79 0.000222895
26 *886:D *184:37 0.000599976
27 *886:D *205:14 0.000100812
28 *833:A *886:D 0.000887957
29 *896:A *886:D 0.000589288
*RES
1 *778:X *886:D 27.4445 
*END

*D_NET *17 0.00817406
*CONN
*I *887:D I *D sky130_fd_sc_hd__dfrtp_1
*I *782:X O *D sky130_fd_sc_hd__clkbuf_1
*CAP
1 *887:D 0.00178657
2 *782:X 0.00178657
3 *887:D *711:B 2.6523e-05
4 *887:D *714:A 1.35153e-05
5 *887:D *740:B 0.00050281
6 *887:D *776:A 6.26406e-05
7 *887:D *782:A 2.97561e-05
8 *887:D *792:B 6.03272e-05
9 *887:D *798:A 0.000182125
10 *887:D *824:C 0.000136141
11 *887:D *865:A 1.931e-05
12 *887:D *870:D 6.32437e-05
13 *887:D *873:RESET_B 0.00152324
14 *887:D *883:RESET_B 0.000267298
15 *887:D *84:135 4.21256e-05
16 *887:D *88:30 2.41064e-05
17 *887:D *163:97 9.97074e-05
18 *887:D *169:16 7.2801e-05
19 *887:D *175:27 0.00011352
20 *887:D *175:40 7.9642e-06
21 *887:D *179:68 4.22379e-05
22 *887:D *182:51 5.36563e-05
23 *887:D *184:37 0.000257023
24 *887:D *200:18 3.8403e-05
25 *886:D *887:D 0.000962449
*RES
1 *782:X *887:D 25.1005 
*END

*D_NET *18 0.00352116
*CONN
*I *888:D I *D sky130_fd_sc_hd__dfrtp_2
*I *786:X O *D sky130_fd_sc_hd__clkbuf_1
*CAP
1 *888:D 0.000826827
2 *786:X 0.000826827
3 *888:D *207:DIODE 7.08076e-05
4 *888:D *702:A 0.000155601
5 *888:D *702:C 0.000104614
6 *888:D *702:D 1.19928e-05
7 *888:D *709:C 3.01847e-05
8 *888:D *735:A_N 8.23457e-05
9 *888:D *735:B 0.000178269
10 *888:D *736:A 0.000553431
11 *888:D *750:A 0.000133894
12 *888:D *816:A 4.66108e-05
13 *888:D *816:B 3.98127e-05
14 *888:D *874:RESET_B 1.43396e-05
15 *888:D *888:CLK 4.77719e-05
16 *888:D *40:20 0.000142907
17 *888:D *134:40 6.33103e-05
18 *888:D *171:16 0.00013525
19 *888:D *199:53 5.63635e-05
*RES
1 *786:X *888:D 23.88 
*END

*D_NET *19 0.0169528
*CONN
*I *870:D I *D sky130_fd_sc_hd__dfrtp_4
*I *818:X O *D sky130_fd_sc_hd__buf_1
*CAP
1 *870:D 0.00276595
2 *818:X 0.00171296
3 *19:22 0.00447891
4 *870:D *794:A 0.000127443
5 *870:D *808:A 3.99404e-05
6 *870:D *866:D 0.000123419
7 *870:D *870:CLK 2.49909e-05
8 *870:D *871:RESET_B 4.66108e-05
9 *870:D *898:A 0.000176907
10 *870:D *22:28 0.000332057
11 *870:D *84:69 3.60409e-05
12 *870:D *88:30 0
13 *870:D *116:53 1.29709e-05
14 *870:D *134:40 7.932e-05
15 *870:D *173:114 0.000120754
16 *870:D *183:50 7.61642e-05
17 *870:D *191:35 5.91985e-05
18 *870:D *199:53 0.000700535
19 *870:D *200:18 0
20 *870:D *205:65 0.00041333
21 *19:22 *718:A2 7.94912e-05
22 *19:22 *734:A 2.39856e-05
23 *19:22 *734:B 8.23457e-05
24 *19:22 *785:C 0.000379153
25 *19:22 *818:A 0.000583513
26 *19:22 *868:D 0.000221881
27 *19:22 *876:RESET_B 0.00160812
28 *19:22 *22:28 2.50013e-05
29 *19:22 *27:20 0.00205117
30 *19:22 *47:20 0.000253534
31 *19:22 *88:30 7.56907e-05
32 *833:A *870:D 2.38661e-05
33 *882:D *19:22 0.000154266
34 *887:D *870:D 6.32437e-05
*RES
1 *818:X *19:22 47.1764 
2 *19:22 *870:D 11.4269 
*END

*D_NET *20 0.00720487
*CONN
*I *889:D I *D sky130_fd_sc_hd__dfrtp_1
*I *790:X O *D sky130_fd_sc_hd__clkbuf_1
*CAP
1 *889:D 0.00119526
2 *790:X 0.00119526
3 *889:D *703:C 0.000344469
4 *889:D *759:A 0.00103796
5 *889:D *809:B 0.000108591
6 *889:D *889:CLK 6.61627e-05
7 *889:D *893:D 9.65388e-05
8 *889:D *895:CLK 6.52347e-05
9 *889:D *895:RESET_B 0.000149272
10 *889:D *900:A 2.85364e-05
11 *889:D *81:26 0.000111749
12 *889:D *102:50 0.000131478
13 *889:D *102:54 0.00030935
14 *889:D *105:91 0.00163664
15 *889:D *167:41 0.000211906
16 *889:D *184:14 0.000469857
17 *889:D *198:8 4.66108e-05
*RES
1 *790:X *889:D 42.63 
*END

*D_NET *21 0.00121937
*CONN
*I *890:D I *D sky130_fd_sc_hd__dfrtp_2
*I *794:X O *D sky130_fd_sc_hd__clkbuf_1
*CAP
1 *890:D 0.000445744
2 *794:X 0.000445744
3 *890:D *810:A 0.000170973
4 *882:D *890:D 0.000156911
*RES
1 *794:X *890:D 14.715 
*END

*D_NET *22 0.0184987
*CONN
*I *891:D I *D sky130_fd_sc_hd__dfrtp_1
*I *798:X O *D sky130_fd_sc_hd__buf_1
*CAP
1 *891:D 0.000697075
2 *798:X 0.00501322
3 *22:28 0.0057103
4 *891:D *743:C 2.69153e-05
5 *891:D *761:B 9.45683e-05
6 *891:D *878:D 0.000105485
7 *891:D *891:RESET_B 0.000187164
8 *891:D *137:22 1.32026e-05
9 *891:D *195:76 0.000852443
10 *22:28 *703:D 5.02126e-06
11 *22:28 *705:A 0
12 *22:28 *714:A 9.19102e-05
13 *22:28 *726:B 0.000104499
14 *22:28 *742:A 2.01618e-05
15 *22:28 *765:B1 3.14651e-05
16 *22:28 *777:B 0.000242896
17 *22:28 *787:B 0
18 *22:28 *812:A1 2.25225e-05
19 *22:28 *876:RESET_B 0.000328009
20 *22:28 *895:D 6.71003e-05
21 *22:28 *899:A 6.044e-05
22 *22:28 *47:20 0.000974315
23 *22:28 *76:28 0.000507088
24 *22:28 *116:37 5.42487e-05
25 *22:28 *116:53 0.0010036
26 *22:28 *164:72 2.51095e-05
27 *22:28 *164:93 4.00605e-05
28 *22:28 *172:56 2.33613e-05
29 *22:28 *183:50 0.000151225
30 *22:28 *183:71 3.71502e-05
31 *22:28 *195:76 0
32 *22:28 *205:97 0.000587982
33 *22:28 *206:18 0
34 *22:28 *206:45 0.000831027
35 count[2] *22:28 0
36 *870:D *22:28 0.000332057
37 *881:D *22:28 0.000232092