*SPEF "ieee 1481-1999"
*DESIGN "alu"
*DATE "18:55:23 Saturday May 03, 2025"
*VENDOR "The OpenROAD Project"
*PROGRAM "OpenROAD"
*VERSION "b16bda7e82721d10566ff7e2b68f1ff0be9f9e38"
*DESIGN_FLOW "NAME_SCOPE LOCAL" "PIN_CAP NONE"
*DIVIDER /
*DELIMITER :
*BUS_DELIMITER []
*T_UNIT 1 NS
*C_UNIT 1 PF
*R_UNIT 1 OHM
*L_UNIT 1 HENRY

*NAME_MAP
*3 a[0]
*4 a[1]
*5 a[2]
*6 a[3]
*7 a[4]
*8 a[5]
*9 a[6]
*10 a[7]
*11 b[0]
*12 b[1]
*13 b[2]
*14 b[3]
*15 b[4]
*16 b[5]
*17 b[6]
*18 b[7]
*19 c[0]
*20 c[1]
*21 c[2]
*22 z[0]
*23 z[1]
*24 z[2]
*25 z[3]
*26 z[4]
*27 z[5]
*28 z[6]
*29 z[7]
*30 _000_
*31 _001_
*32 _002_
*33 _003_
*34 _004_
*35 _005_
*36 _006_
*37 _007_
*38 _008_
*39 _009_
*40 _010_
*41 _011_
*42 _012_
*43 _013_
*44 _014_
*45 _015_
*46 _016_
*47 _017_
*48 _018_
*49 _019_
*50 _020_
*51 _021_
*52 _022_
*53 _023_
*54 _024_
*55 _025_
*56 _026_
*57 _027_
*58 _028_
*59 _029_
*60 _030_
*61 _031_
*62 _032_
*63 _033_
*64 _034_
*65 _035_
*66 _036_
*67 _037_
*68 _038_
*69 _039_
*70 _040_
*71 _041_
*72 _042_
*73 _043_
*74 _044_
*75 _045_
*76 _046_
*77 _047_
*78 _048_
*79 _049_
*80 _050_
*81 _051_
*82 _052_
*83 _053_
*84 _054_
*85 _055_
*86 _056_
*87 _057_
*88 _058_
*89 _059_
*90 _060_
*91 _061_
*92 _062_
*93 _063_
*94 _064_
*95 _065_
*96 _066_
*97 _067_
*98 _068_
*99 _069_
*100 _070_
*101 _071_
*102 _072_
*103 _073_
*104 _074_
*105 _075_
*106 _076_
*107 _077_
*108 _078_
*109 _079_
*110 _080_
*111 _081_
*112 _082_
*113 _083_
*114 _084_
*115 _085_
*116 _086_
*117 _087_
*118 _088_
*119 _089_
*120 _090_
*121 _091_
*122 _092_
*123 _093_
*124 _094_
*125 _095_
*126 _096_
*127 _097_
*128 _098_
*129 _099_
*130 _100_
*131 _101_
*132 _102_
*133 _103_
*134 _104_
*135 _105_
*136 _106_
*137 _107_
*138 _108_
*139 _109_
*140 _110_
*141 _111_
*142 _112_
*143 _113_
*144 _114_
*145 _115_
*146 _116_
*147 _117_
*148 _118_
*149 _119_
*150 _120_
*151 _121_
*152 _122_
*153 _123_
*154 _124_
*155 _125_
*156 _126_
*157 _127_
*158 _128_
*159 _129_
*160 _130_
*161 _131_
*162 _132_
*163 _133_
*164 _134_
*165 _135_
*166 _136_
*167 _137_
*168 _138_
*169 _139_
*170 _140_
*171 _141_
*172 _142_
*173 _143_
*174 _144_
*175 _145_
*176 _146_
*177 _147_
*178 _148_
*179 _149_
*180 _150_
*181 _151_
*182 _152_
*183 _153_
*184 _154_
*185 _155_
*186 _156_
*187 _157_
*188 _158_
*189 _159_
*190 _160_
*191 _161_
*192 _162_
*193 _163_
*194 _164_
*195 _165_
*196 _166_
*197 _167_
*198 _168_
*199 _169_
*200 _170_
*201 _171_
*202 _172_
*203 _173_
*204 _174_
*205 _175_
*206 _176_
*207 _177_
*208 _178_
*209 _179_
*210 _180_
*211 _181_
*212 _182_
*213 _183_
*214 _184_
*215 _185_
*216 _186_
*217 _187_
*218 _188_
*219 _189_
*220 _190_
*221 _191_
*222 _192_
*223 _193_
*224 _194_
*225 _195_
*226 _196_
*227 _197_
*228 _198_
*229 _199_
*230 _200_
*231 _201_
*232 _202_
*233 _203_
*234 _204_
*235 _205_
*236 _206_
*237 _207_
*238 _208_
*239 _209_
*240 _210_
*241 _211_
*242 _212_
*243 _213_
*244 _214_
*245 _215_
*246 _216_
*247 _217_
*248 _218_
*249 _219_
*250 _220_
*251 _221_
*252 _222_
*253 _223_
*254 _224_
*255 _225_
*256 _226_
*257 _227_
*258 _228_
*259 _229_
*260 _230_
*261 _231_
*262 _232_
*263 _233_
*264 _234_
*265 _235_
*266 _236_
*267 _237_
*268 _238_
*269 _239_
*270 _240_
*271 _241_
*272 net1
*273 net10
*274 net11
*275 net12
*276 net13
*277 net14
*278 net15
*279 net16
*280 net17
*281 net18
*282 net19
*283 net2
*284 net20
*285 net21
*286 net22
*287 net23
*288 net24
*289 net25
*290 net26
*291 net27
*292 net28
*293 net29
*294 net3
*295 net30
*296 net31
*297 net32
*298 net33
*299 net34
*300 net35
*301 net36
*302 net37
*303 net38
*304 net39
*305 net4
*306 net40
*307 net41
*308 net42
*309 net43
*310 net44
*311 net45
*312 net46
*313 net47
*314 net48
*315 net49
*316 net5
*317 net50
*318 net51
*319 net52
*320 net53
*321 net54
*322 net55
*323 net56
*324 net57
*325 net58
*326 net59
*327 net6
*328 net60
*329 net61
*330 net62
*331 net63
*332 net64
*333 net65
*334 net66
*335 net67
*336 net68
*337 net69
*338 net7
*339 net70
*340 net71
*341 net72
*342 net73
*343 net74
*344 net75
*345 net76
*346 net77
*347 net78
*348 net79
*349 net8
*350 net80
*351 net81
*352 net82
*353 net83
*354 net84
*355 net85
*356 net86
*357 net9
*358 ANTENNA_1
*359 ANTENNA_10
*360 ANTENNA_11
*361 ANTENNA_12
*362 ANTENNA_13
*363 ANTENNA_14
*364 ANTENNA_15
*365 ANTENNA_16
*366 ANTENNA_17
*367 ANTENNA_18
*368 ANTENNA_19
*369 ANTENNA_2
*370 ANTENNA_20
*371 ANTENNA_21
*372 ANTENNA_22
*373 ANTENNA_23
*374 ANTENNA_24
*375 ANTENNA_25
*376 ANTENNA_26
*377 ANTENNA_27
*378 ANTENNA_3
*379 ANTENNA_4
*380 ANTENNA_5
*381 ANTENNA_6
*382 ANTENNA_7
*383 ANTENNA_8
*384 ANTENNA_9
*385 FILLER_0_0_107
*386 FILLER_0_0_111
*387 FILLER_0_0_113
*388 FILLER_0_0_125
*389 FILLER_0_0_137
*390 FILLER_0_0_141
*391 FILLER_0_0_15
*392 FILLER_0_0_153
*393 FILLER_0_0_165
*394 FILLER_0_0_169
*395 FILLER_0_0_181
*396 FILLER_0_0_193
*397 FILLER_0_0_197
*398 FILLER_0_0_209
*399 FILLER_0_0_221
*400 FILLER_0_0_237
*401 FILLER_0_0_249
*402 FILLER_0_0_253
*403 FILLER_0_0_265
*404 FILLER_0_0_27
*405 FILLER_0_0_277
*406 FILLER_0_0_281
*407 FILLER_0_0_29
*408 FILLER_0_0_293
*409 FILLER_0_0_3
*410 FILLER_0_0_305
*411 FILLER_0_0_309
*412 FILLER_0_0_321
*413 FILLER_0_0_333
*414 FILLER_0_0_337
*415 FILLER_0_0_349
*416 FILLER_0_0_361
*417 FILLER_0_0_365
*418 FILLER_0_0_379
*419 FILLER_0_0_391
*420 FILLER_0_0_393
*421 FILLER_0_0_405
*422 FILLER_0_0_41
*423 FILLER_0_0_417
*424 FILLER_0_0_421
*425 FILLER_0_0_53
*426 FILLER_0_0_57
*427 FILLER_0_0_63
*428 FILLER_0_0_76
*429 FILLER_0_0_85
*430 FILLER_0_0_93
*431 FILLER_0_0_98
*432 FILLER_0_100_109
*433 FILLER_0_100_121
*434 FILLER_0_100_133
*435 FILLER_0_100_139
*436 FILLER_0_100_141
*437 FILLER_0_100_15
*438 FILLER_0_100_153
*439 FILLER_0_100_165
*440 FILLER_0_100_177
*441 FILLER_0_100_189
*442 FILLER_0_100_195
*443 FILLER_0_100_197
*444 FILLER_0_100_209
*445 FILLER_0_100_221
*446 FILLER_0_100_233
*447 FILLER_0_100_245
*448 FILLER_0_100_251
*449 FILLER_0_100_253
*450 FILLER_0_100_265
*451 FILLER_0_100_27
*452 FILLER_0_100_277
*453 FILLER_0_100_289
*454 FILLER_0_100_29
*455 FILLER_0_100_3
*456 FILLER_0_100_304
*457 FILLER_0_100_309
*458 FILLER_0_100_317
*459 FILLER_0_100_342
*460 FILLER_0_100_354
*461 FILLER_0_100_362
*462 FILLER_0_100_365
*463 FILLER_0_100_377
*464 FILLER_0_100_389
*465 FILLER_0_100_401
*466 FILLER_0_100_41
*467 FILLER_0_100_413
*468 FILLER_0_100_419
*469 FILLER_0_100_421
*470 FILLER_0_100_53
*471 FILLER_0_100_65
*472 FILLER_0_100_77
*473 FILLER_0_100_83
*474 FILLER_0_100_85
*475 FILLER_0_100_97
*476 FILLER_0_101_105
*477 FILLER_0_101_111
*478 FILLER_0_101_113
*479 FILLER_0_101_125
*480 FILLER_0_101_137
*481 FILLER_0_101_149
*482 FILLER_0_101_15
*483 FILLER_0_101_161
*484 FILLER_0_101_167
*485 FILLER_0_101_169
*486 FILLER_0_101_181
*487 FILLER_0_101_193
*488 FILLER_0_101_205
*489 FILLER_0_101_217
*490 FILLER_0_101_223
*491 FILLER_0_101_225
*492 FILLER_0_101_233
*493 FILLER_0_101_247
*494 FILLER_0_101_259
*495 FILLER_0_101_27
*496 FILLER_0_101_271
*497 FILLER_0_101_275
*498 FILLER_0_101_278
*499 FILLER_0_101_289
*500 FILLER_0_101_293
*501 FILLER_0_101_297
*502 FILLER_0_101_3
*503 FILLER_0_101_309
*504 FILLER_0_101_321
*505 FILLER_0_101_333
*506 FILLER_0_101_337
*507 FILLER_0_101_349
*508 FILLER_0_101_361
*509 FILLER_0_101_373
*510 FILLER_0_101_385
*511 FILLER_0_101_39
*512 FILLER_0_101_391
*513 FILLER_0_101_393
*514 FILLER_0_101_405
*515 FILLER_0_101_417
*516 FILLER_0_101_51
*517 FILLER_0_101_55
*518 FILLER_0_101_57
*519 FILLER_0_101_69
*520 FILLER_0_101_81
*521 FILLER_0_101_93
*522 FILLER_0_102_109
*523 FILLER_0_102_121
*524 FILLER_0_102_133
*525 FILLER_0_102_139
*526 FILLER_0_102_141
*527 FILLER_0_102_15
*528 FILLER_0_102_153
*529 FILLER_0_102_165
*530 FILLER_0_102_177
*531 FILLER_0_102_189
*532 FILLER_0_102_195
*533 FILLER_0_102_197
*534 FILLER_0_102_209
*535 FILLER_0_102_221
*536 FILLER_0_102_229
*537 FILLER_0_102_243
*538 FILLER_0_102_251
*539 FILLER_0_102_263
*540 FILLER_0_102_27
*541 FILLER_0_102_275
*542 FILLER_0_102_287
*543 FILLER_0_102_29
*544 FILLER_0_102_299
*545 FILLER_0_102_3
*546 FILLER_0_102_307
*547 FILLER_0_102_309
*548 FILLER_0_102_321
*549 FILLER_0_102_333
*550 FILLER_0_102_345
*551 FILLER_0_102_357
*552 FILLER_0_102_363
*553 FILLER_0_102_365
*554 FILLER_0_102_377
*555 FILLER_0_102_389
*556 FILLER_0_102_401
*557 FILLER_0_102_41
*558 FILLER_0_102_413
*559 FILLER_0_102_419
*560 FILLER_0_102_421
*561 FILLER_0_102_53
*562 FILLER_0_102_65
*563 FILLER_0_102_77
*564 FILLER_0_102_83
*565 FILLER_0_102_85
*566 FILLER_0_102_97
*567 FILLER_0_103_105
*568 FILLER_0_103_111
*569 FILLER_0_103_113
*570 FILLER_0_103_125
*571 FILLER_0_103_137
*572 FILLER_0_103_14
*573 FILLER_0_103_149
*574 FILLER_0_103_161
*575 FILLER_0_103_167
*576 FILLER_0_103_169
*577 FILLER_0_103_181
*578 FILLER_0_103_193
*579 FILLER_0_103_205
*580 FILLER_0_103_217
*581 FILLER_0_103_223
*582 FILLER_0_103_225
*583 FILLER_0_103_237
*584 FILLER_0_103_245
*585 FILLER_0_103_257
*586 FILLER_0_103_26
*587 FILLER_0_103_269
*588 FILLER_0_103_277
*589 FILLER_0_103_281
*590 FILLER_0_103_291
*591 FILLER_0_103_303
*592 FILLER_0_103_315
*593 FILLER_0_103_327
*594 FILLER_0_103_335
*595 FILLER_0_103_337
*596 FILLER_0_103_349
*597 FILLER_0_103_361
*598 FILLER_0_103_373
*599 FILLER_0_103_38
*600 FILLER_0_103_385
*601 FILLER_0_103_391
*602 FILLER_0_103_393
*603 FILLER_0_103_405
*604 FILLER_0_103_417
*605 FILLER_0_103_50
*606 FILLER_0_103_57
*607 FILLER_0_103_69
*608 FILLER_0_103_81
*609 FILLER_0_103_93
*610 FILLER_0_104_109
*611 FILLER_0_104_121
*612 FILLER_0_104_133
*613 FILLER_0_104_139
*614 FILLER_0_104_141
*615 FILLER_0_104_15
*616 FILLER_0_104_153
*617 FILLER_0_104_165
*618 FILLER_0_104_190
*619 FILLER_0_104_197
*620 FILLER_0_104_203
*621 FILLER_0_104_211
*622 FILLER_0_104_223
*623 FILLER_0_104_235
*624 FILLER_0_104_247
*625 FILLER_0_104_251
*626 FILLER_0_104_269
*627 FILLER_0_104_27
*628 FILLER_0_104_281
*629 FILLER_0_104_29
*630 FILLER_0_104_293
*631 FILLER_0_104_3
*632 FILLER_0_104_305
*633 FILLER_0_104_309
*634 FILLER_0_104_321
*635 FILLER_0_104_333
*636 FILLER_0_104_345
*637 FILLER_0_104_357
*638 FILLER_0_104_363
*639 FILLER_0_104_365
*640 FILLER_0_104_377
*641 FILLER_0_104_389
*642 FILLER_0_104_401
*643 FILLER_0_104_41
*644 FILLER_0_104_413
*645 FILLER_0_104_419
*646 FILLER_0_104_421
*647 FILLER_0_104_53
*648 FILLER_0_104_83
*649 FILLER_0_104_85
*650 FILLER_0_104_97
*651 FILLER_0_105_105
*652 FILLER_0_105_111
*653 FILLER_0_105_113
*654 FILLER_0_105_125
*655 FILLER_0_105_137
*656 FILLER_0_105_149
*657 FILLER_0_105_15
*658 FILLER_0_105_161
*659 FILLER_0_105_167
*660 FILLER_0_105_169
*661 FILLER_0_105_181
*662 FILLER_0_105_193
*663 FILLER_0_105_205
*664 FILLER_0_105_220
*665 FILLER_0_105_225
*666 FILLER_0_105_237
*667 FILLER_0_105_249
*668 FILLER_0_105_261
*669 FILLER_0_105_27
*670 FILLER_0_105_273
*671 FILLER_0_105_279
*672 FILLER_0_105_281
*673 FILLER_0_105_293
*674 FILLER_0_105_3
*675 FILLER_0_105_305
*676 FILLER_0_105_317
*677 FILLER_0_105_329
*678 FILLER_0_105_335
*679 FILLER_0_105_337
*680 FILLER_0_105_349
*681 FILLER_0_105_361
*682 FILLER_0_105_373
*683 FILLER_0_105_385
*684 FILLER_0_105_39
*685 FILLER_0_105_391
*686 FILLER_0_105_393
*687 FILLER_0_105_405
*688 FILLER_0_105_417
*689 FILLER_0_105_51
*690 FILLER_0_105_55
*691 FILLER_0_105_57
*692 FILLER_0_105_69
*693 FILLER_0_105_81
*694 FILLER_0_105_93
*695 FILLER_0_106_109
*696 FILLER_0_106_121
*697 FILLER_0_106_133
*698 FILLER_0_106_139
*699 FILLER_0_106_141
*700 FILLER_0_106_15
*701 FILLER_0_106_153
*702 FILLER_0_106_165
*703 FILLER_0_106_177
*704 FILLER_0_106_189
*705 FILLER_0_106_195
*706 FILLER_0_106_197
*707 FILLER_0_106_209
*708 FILLER_0_106_221
*709 FILLER_0_106_233
*710 FILLER_0_106_245
*711 FILLER_0_106_251
*712 FILLER_0_106_253
*713 FILLER_0_106_265
*714 FILLER_0_106_27
*715 FILLER_0_106_277
*716 FILLER_0_106_289
*717 FILLER_0_106_29
*718 FILLER_0_106_3
*719 FILLER_0_106_301
*720 FILLER_0_106_307
*721 FILLER_0_106_309
*722 FILLER_0_106_321
*723 FILLER_0_106_333
*724 FILLER_0_106_345
*725 FILLER_0_106_357
*726 FILLER_0_106_363
*727 FILLER_0_106_365
*728 FILLER_0_106_377
*729 FILLER_0_106_389
*730 FILLER_0_106_406
*731 FILLER_0_106_41
*732 FILLER_0_106_418
*733 FILLER_0_106_421
*734 FILLER_0_106_53
*735 FILLER_0_106_65
*736 FILLER_0_106_77
*737 FILLER_0_106_83
*738 FILLER_0_106_85
*739 FILLER_0_106_97
*740 FILLER_0_107_105
*741 FILLER_0_107_111
*742 FILLER_0_107_113
*743 FILLER_0_107_125
*744 FILLER_0_107_137
*745 FILLER_0_107_149
*746 FILLER_0_107_15
*747 FILLER_0_107_161
*748 FILLER_0_107_167
*749 FILLER_0_107_169
*750 FILLER_0_107_181
*751 FILLER_0_107_193
*752 FILLER_0_107_205
*753 FILLER_0_107_217
*754 FILLER_0_107_223
*755 FILLER_0_107_225
*756 FILLER_0_107_237
*757 FILLER_0_107_249
*758 FILLER_0_107_261
*759 FILLER_0_107_27
*760 FILLER_0_107_273
*761 FILLER_0_107_279
*762 FILLER_0_107_281
*763 FILLER_0_107_293
*764 FILLER_0_107_3
*765 FILLER_0_107_305
*766 FILLER_0_107_317
*767 FILLER_0_107_329
*768 FILLER_0_107_335
*769 FILLER_0_107_337
*770 FILLER_0_107_349
*771 FILLER_0_107_361
*772 FILLER_0_107_373
*773 FILLER_0_107_385
*774 FILLER_0_107_39
*775 FILLER_0_107_391
*776 FILLER_0_107_405
*777 FILLER_0_107_417
*778 FILLER_0_107_51
*779 FILLER_0_107_55
*780 FILLER_0_107_57
*781 FILLER_0_107_69
*782 FILLER_0_107_81
*783 FILLER_0_107_93
*784 FILLER_0_108_109
*785 FILLER_0_108_121
*786 FILLER_0_108_133
*787 FILLER_0_108_139
*788 FILLER_0_108_141
*789 FILLER_0_108_15
*790 FILLER_0_108_153
*791 FILLER_0_108_165
*792 FILLER_0_108_177
*793 FILLER_0_108_189
*794 FILLER_0_108_195
*795 FILLER_0_108_197
*796 FILLER_0_108_209
*797 FILLER_0_108_221
*798 FILLER_0_108_233
*799 FILLER_0_108_245
*800 FILLER_0_108_251
*801 FILLER_0_108_253
*802 FILLER_0_108_265
*803 FILLER_0_108_27
*804 FILLER_0_108_277
*805 FILLER_0_108_289
*806 FILLER_0_108_29
*807 FILLER_0_108_3
*808 FILLER_0_108_301
*809 FILLER_0_108_307
*810 FILLER_0_108_309
*811 FILLER_0_108_321
*812 FILLER_0_108_333
*813 FILLER_0_108_345
*814 FILLER_0_108_357
*815 FILLER_0_108_363
*816 FILLER_0_108_365
*817 FILLER_0_108_377
*818 FILLER_0_108_389
*819 FILLER_0_108_401
*820 FILLER_0_108_41
*821 FILLER_0_108_413
*822 FILLER_0_108_419
*823 FILLER_0_108_421
*824 FILLER_0_108_53
*825 FILLER_0_108_65
*826 FILLER_0_108_77
*827 FILLER_0_108_83
*828 FILLER_0_108_85
*829 FILLER_0_108_97
*830 FILLER_0_109_105
*831 FILLER_0_109_111
*832 FILLER_0_109_113
*833 FILLER_0_109_125
*834 FILLER_0_109_137
*835 FILLER_0_109_149
*836 FILLER_0_109_15
*837 FILLER_0_109_161
*838 FILLER_0_109_167
*839 FILLER_0_109_169
*840 FILLER_0_109_181
*841 FILLER_0_109_193
*842 FILLER_0_109_205
*843 FILLER_0_109_217
*844 FILLER_0_109_223
*845 FILLER_0_109_225
*846 FILLER_0_109_237
*847 FILLER_0_109_254
*848 FILLER_0_109_266
*849 FILLER_0_109_27
*850 FILLER_0_109_278
*851 FILLER_0_109_281
*852 FILLER_0_109_293
*853 FILLER_0_109_3
*854 FILLER_0_109_305
*855 FILLER_0_109_317
*856 FILLER_0_109_329
*857 FILLER_0_109_335
*858 FILLER_0_109_337
*859 FILLER_0_109_349
*860 FILLER_0_109_361
*861 FILLER_0_109_373
*862 FILLER_0_109_385
*863 FILLER_0_109_39
*864 FILLER_0_109_391
*865 FILLER_0_109_393
*866 FILLER_0_109_405
*867 FILLER_0_109_417
*868 FILLER_0_109_51
*869 FILLER_0_109_55
*870 FILLER_0_109_57
*871 FILLER_0_109_69
*872 FILLER_0_109_81
*873 FILLER_0_109_93
*874 FILLER_0_10_109
*875 FILLER_0_10_122
*876 FILLER_0_10_134
*877 FILLER_0_10_141
*878 FILLER_0_10_15
*879 FILLER_0_10_159
*880 FILLER_0_10_171
*881 FILLER_0_10_183
*882 FILLER_0_10_195
*883 FILLER_0_10_197
*884 FILLER_0_10_209
*885 FILLER_0_10_221
*886 FILLER_0_10_233
*887 FILLER_0_10_245
*888 FILLER_0_10_251
*889 FILLER_0_10_253
*890 FILLER_0_10_265
*891 FILLER_0_10_27
*892 FILLER_0_10_277
*893 FILLER_0_10_289
*894 FILLER_0_10_29
*895 FILLER_0_10_3
*896 FILLER_0_10_301
*897 FILLER_0_10_307
*898 FILLER_0_10_309
*899 FILLER_0_10_325
*900 FILLER_0_10_337
*901 FILLER_0_10_349
*902 FILLER_0_10_361
*903 FILLER_0_10_365
*904 FILLER_0_10_377
*905 FILLER_0_10_389
*906 FILLER_0_10_401
*907 FILLER_0_10_41
*908 FILLER_0_10_413
*909 FILLER_0_10_419
*910 FILLER_0_10_421
*911 FILLER_0_10_53
*912 FILLER_0_10_65
*913 FILLER_0_10_77
*914 FILLER_0_10_83
*915 FILLER_0_10_85
*916 FILLER_0_10_97
*917 FILLER_0_110_109
*918 FILLER_0_110_121
*919 FILLER_0_110_133
*920 FILLER_0_110_139
*921 FILLER_0_110_141
*922 FILLER_0_110_15
*923 FILLER_0_110_153
*924 FILLER_0_110_165
*925 FILLER_0_110_177
*926 FILLER_0_110_189
*927 FILLER_0_110_195
*928 FILLER_0_110_197
*929 FILLER_0_110_209
*930 FILLER_0_110_221
*931 FILLER_0_110_233
*932 FILLER_0_110_245
*933 FILLER_0_110_251
*934 FILLER_0_110_253
*935 FILLER_0_110_263
*936 FILLER_0_110_27
*937 FILLER_0_110_275
*938 FILLER_0_110_287
*939 FILLER_0_110_29
*940 FILLER_0_110_299
*941 FILLER_0_110_3
*942 FILLER_0_110_307
*943 FILLER_0_110_343
*944 FILLER_0_110_355
*945 FILLER_0_110_363
*946 FILLER_0_110_365
*947 FILLER_0_110_377
*948 FILLER_0_110_389
*949 FILLER_0_110_401
*950 FILLER_0_110_41
*951 FILLER_0_110_413
*952 FILLER_0_110_419
*953 FILLER_0_110_421
*954 FILLER_0_110_53
*955 FILLER_0_110_65
*956 FILLER_0_110_77
*957 FILLER_0_110_83
*958 FILLER_0_110_85
*959 FILLER_0_110_97
*960 FILLER_0_111_105
*961 FILLER_0_111_111
*962 FILLER_0_111_113
*963 FILLER_0_111_125
*964 FILLER_0_111_134
*965 FILLER_0_111_146
*966 FILLER_0_111_15
*967 FILLER_0_111_158
*968 FILLER_0_111_166
*969 FILLER_0_111_169
*970 FILLER_0_111_181
*971 FILLER_0_111_193
*972 FILLER_0_111_205
*973 FILLER_0_111_217
*974 FILLER_0_111_223
*975 FILLER_0_111_233
*976 FILLER_0_111_245
*977 FILLER_0_111_257
*978 FILLER_0_111_269
*979 FILLER_0_111_27
*980 FILLER_0_111_277
*981 FILLER_0_111_281
*982 FILLER_0_111_293
*983 FILLER_0_111_3
*984 FILLER_0_111_305
*985 FILLER_0_111_311
*986 FILLER_0_111_323
*987 FILLER_0_111_335
*988 FILLER_0_111_349
*989 FILLER_0_111_361
*990 FILLER_0_111_373
*991 FILLER_0_111_385
*992 FILLER_0_111_39
*993 FILLER_0_111_391
*994 FILLER_0_111_393
*995 FILLER_0_111_405
*996 FILLER_0_111_417
*997 FILLER_0_111_51
*998 FILLER_0_111_55
*999 FILLER_0_111_57
*1000 FILLER_0_111_69
*1001 FILLER_0_111_81
*1002 FILLER_0_111_93
*1003 FILLER_0_112_109
*1004 FILLER_0_112_117
*1005 FILLER_0_112_134
*1006 FILLER_0_112_141
*1007 FILLER_0_112_15
*1008 FILLER_0_112_153
*1009 FILLER_0_112_165
*1010 FILLER_0_112_177
*1011 FILLER_0_112_189
*1012 FILLER_0_112_195
*1013 FILLER_0_112_197
*1014 FILLER_0_112_209
*1015 FILLER_0_112_235
*1016 FILLER_0_112_247
*1017 FILLER_0_112_251
*1018 FILLER_0_112_253
*1019 FILLER_0_112_265
*1020 FILLER_0_112_27
*1021 FILLER_0_112_277
*1022 FILLER_0_112_289
*1023 FILLER_0_112_29
*1024 FILLER_0_112_3
*1025 FILLER_0_112_301
*1026 FILLER_0_112_307
*1027 FILLER_0_112_309
*1028 FILLER_0_112_321
*1029 FILLER_0_112_333
*1030 FILLER_0_112_345
*1031 FILLER_0_112_357
*1032 FILLER_0_112_363
*1033 FILLER_0_112_365
*1034 FILLER_0_112_377
*1035 FILLER_0_112_389
*1036 FILLER_0_112_401
*1037 FILLER_0_112_41
*1038 FILLER_0_112_413
*1039 FILLER_0_112_419
*1040 FILLER_0_112_421
*1041 FILLER_0_112_53
*1042 FILLER_0_112_65
*1043 FILLER_0_112_73
*1044 FILLER_0_112_78
*1045 FILLER_0_112_85
*1046 FILLER_0_112_97
*1047 FILLER_0_113_105
*1048 FILLER_0_113_111
*1049 FILLER_0_113_113
*1050 FILLER_0_113_125
*1051 FILLER_0_113_137
*1052 FILLER_0_113_145
*1053 FILLER_0_113_15
*1054 FILLER_0_113_163
*1055 FILLER_0_113_167
*1056 FILLER_0_113_169
*1057 FILLER_0_113_181
*1058 FILLER_0_113_193
*1059 FILLER_0_113_205
*1060 FILLER_0_113_217
*1061 FILLER_0_113_223
*1062 FILLER_0_113_225
*1063 FILLER_0_113_237
*1064 FILLER_0_113_249
*1065 FILLER_0_113_261
*1066 FILLER_0_113_273
*1067 FILLER_0_113_279
*1068 FILLER_0_113_281
*1069 FILLER_0_113_293
*1070 FILLER_0_113_3
*1071 FILLER_0_113_305
*1072 FILLER_0_113_31
*1073 FILLER_0_113_311
*1074 FILLER_0_113_315
*1075 FILLER_0_113_318
*1076 FILLER_0_113_330
*1077 FILLER_0_113_337
*1078 FILLER_0_113_349
*1079 FILLER_0_113_361
*1080 FILLER_0_113_373
*1081 FILLER_0_113_385
*1082 FILLER_0_113_391
*1083 FILLER_0_113_393
*1084 FILLER_0_113_405
*1085 FILLER_0_113_417
*1086 FILLER_0_113_48
*1087 FILLER_0_113_57
*1088 FILLER_0_113_69
*1089 FILLER_0_113_81
*1090 FILLER_0_113_93
*1091 FILLER_0_114_109
*1092 FILLER_0_114_121
*1093 FILLER_0_114_133
*1094 FILLER_0_114_139
*1095 FILLER_0_114_141
*1096 FILLER_0_114_15
*1097 FILLER_0_114_153
*1098 FILLER_0_114_165
*1099 FILLER_0_114_177
*1100 FILLER_0_114_189
*1101 FILLER_0_114_195
*1102 FILLER_0_114_197
*1103 FILLER_0_114_209
*1104 FILLER_0_114_218
*1105 FILLER_0_114_230
*1106 FILLER_0_114_242
*1107 FILLER_0_114_250
*1108 FILLER_0_114_253
*1109 FILLER_0_114_265
*1110 FILLER_0_114_27
*1111 FILLER_0_114_277
*1112 FILLER_0_114_289
*1113 FILLER_0_114_29
*1114 FILLER_0_114_3
*1115 FILLER_0_114_301
*1116 FILLER_0_114_307
*1117 FILLER_0_114_314
*1118 FILLER_0_114_318
*1119 FILLER_0_114_330
*1120 FILLER_0_114_342
*1121 FILLER_0_114_354
*1122 FILLER_0_114_362
*1123 FILLER_0_114_365
*1124 FILLER_0_114_377
*1125 FILLER_0_114_389
*1126 FILLER_0_114_401
*1127 FILLER_0_114_41
*1128 FILLER_0_114_413
*1129 FILLER_0_114_419
*1130 FILLER_0_114_421
*1131 FILLER_0_114_53
*1132 FILLER_0_114_61
*1133 FILLER_0_114_71
*1134 FILLER_0_114_83
*1135 FILLER_0_114_85
*1136 FILLER_0_114_97
*1137 FILLER_0_115_105
*1138 FILLER_0_115_111
*1139 FILLER_0_115_113
*1140 FILLER_0_115_125
*1141 FILLER_0_115_131
*1142 FILLER_0_115_141
*1143 FILLER_0_115_15
*1144 FILLER_0_115_153
*1145 FILLER_0_115_165
*1146 FILLER_0_115_169
*1147 FILLER_0_115_181
*1148 FILLER_0_115_193
*1149 FILLER_0_115_205
*1150 FILLER_0_115_217
*1151 FILLER_0_115_223
*1152 FILLER_0_115_225
*1153 FILLER_0_115_237
*1154 FILLER_0_115_249
*1155 FILLER_0_115_261
*1156 FILLER_0_115_27
*1157 FILLER_0_115_273
*1158 FILLER_0_115_279
*1159 FILLER_0_115_281
*1160 FILLER_0_115_293
*1161 FILLER_0_115_3
*1162 FILLER_0_115_305
*1163 FILLER_0_115_323
*1164 FILLER_0_115_335
*1165 FILLER_0_115_337
*1166 FILLER_0_115_349
*1167 FILLER_0_115_361
*1168 FILLER_0_115_383
*1169 FILLER_0_115_39
*1170 FILLER_0_115_391
*1171 FILLER_0_115_393
*1172 FILLER_0_115_405
*1173 FILLER_0_115_417
*1174 FILLER_0_115_51
*1175 FILLER_0_115_55
*1176 FILLER_0_115_69
*1177 FILLER_0_115_81
*1178 FILLER_0_115_93
*1179 FILLER_0_116_109
*1180 FILLER_0_116_121
*1181 FILLER_0_116_133
*1182 FILLER_0_116_139
*1183 FILLER_0_116_147
*1184 FILLER_0_116_15
*1185 FILLER_0_116_159
*1186 FILLER_0_116_171
*1187 FILLER_0_116_183
*1188 FILLER_0_116_195
*1189 FILLER_0_116_197
*1190 FILLER_0_116_209
*1191 FILLER_0_116_221
*1192 FILLER_0_116_233
*1193 FILLER_0_116_245
*1194 FILLER_0_116_251
*1195 FILLER_0_116_253
*1196 FILLER_0_116_265
*1197 FILLER_0_116_27
*1198 FILLER_0_116_277
*1199 FILLER_0_116_289
*1200 FILLER_0_116_29
*1201 FILLER_0_116_3
*1202 FILLER_0_116_301
*1203 FILLER_0_116_307
*1204 FILLER_0_116_316
*1205 FILLER_0_116_328
*1206 FILLER_0_116_349
*1207 FILLER_0_116_361
*1208 FILLER_0_116_365
*1209 FILLER_0_116_377
*1210 FILLER_0_116_389
*1211 FILLER_0_116_401
*1212 FILLER_0_116_41
*1213 FILLER_0_116_413
*1214 FILLER_0_116_419
*1215 FILLER_0_116_421
*1216 FILLER_0_116_53
*1217 FILLER_0_116_65
*1218 FILLER_0_116_77
*1219 FILLER_0_116_83
*1220 FILLER_0_116_85
*1221 FILLER_0_116_97
*1222 FILLER_0_117_105
*1223 FILLER_0_117_111
*1224 FILLER_0_117_120
*1225 FILLER_0_117_132
*1226 FILLER_0_117_144
*1227 FILLER_0_117_15
*1228 FILLER_0_117_156
*1229 FILLER_0_117_169
*1230 FILLER_0_117_181
*1231 FILLER_0_117_193
*1232 FILLER_0_117_205
*1233 FILLER_0_117_217
*1234 FILLER_0_117_223
*1235 FILLER_0_117_225
*1236 FILLER_0_117_237
*1237 FILLER_0_117_249
*1238 FILLER_0_117_253
*1239 FILLER_0_117_261
*1240 FILLER_0_117_27
*1241 FILLER_0_117_273
*1242 FILLER_0_117_279
*1243 FILLER_0_117_281
*1244 FILLER_0_117_293
*1245 FILLER_0_117_3
*1246 FILLER_0_117_305
*1247 FILLER_0_117_317
*1248 FILLER_0_117_329
*1249 FILLER_0_117_335
*1250 FILLER_0_117_337
*1251 FILLER_0_117_349
*1252 FILLER_0_117_361
*1253 FILLER_0_117_373
*1254 FILLER_0_117_385
*1255 FILLER_0_117_39
*1256 FILLER_0_117_391
*1257 FILLER_0_117_393
*1258 FILLER_0_117_405
*1259 FILLER_0_117_415
*1260 FILLER_0_117_427
*1261 FILLER_0_117_51
*1262 FILLER_0_117_55
*1263 FILLER_0_117_57
*1264 FILLER_0_117_69
*1265 FILLER_0_117_81
*1266 FILLER_0_117_93
*1267 FILLER_0_118_110
*1268 FILLER_0_118_122
*1269 FILLER_0_118_134
*1270 FILLER_0_118_141
*1271 FILLER_0_118_15
*1272 FILLER_0_118_153
*1273 FILLER_0_118_165
*1274 FILLER_0_118_177
*1275 FILLER_0_118_189
*1276 FILLER_0_118_195
*1277 FILLER_0_118_197
*1278 FILLER_0_118_209
*1279 FILLER_0_118_221
*1280 FILLER_0_118_233
*1281 FILLER_0_118_245
*1282 FILLER_0_118_251
*1283 FILLER_0_118_253
*1284 FILLER_0_118_265
*1285 FILLER_0_118_27
*1286 FILLER_0_118_277
*1287 FILLER_0_118_289
*1288 FILLER_0_118_29
*1289 FILLER_0_118_3
*1290 FILLER_0_118_301
*1291 FILLER_0_118_307
*1292 FILLER_0_118_309
*1293 FILLER_0_118_321
*1294 FILLER_0_118_333
*1295 FILLER_0_118_345
*1296 FILLER_0_118_357
*1297 FILLER_0_118_363
*1298 FILLER_0_118_365
*1299 FILLER_0_118_377
*1300 FILLER_0_118_389
*1301 FILLER_0_118_401
*1302 FILLER_0_118_41
*1303 FILLER_0_118_413
*1304 FILLER_0_118_419
*1305 FILLER_0_118_421
*1306 FILLER_0_118_53
*1307 FILLER_0_118_65
*1308 FILLER_0_118_85
*1309 FILLER_0_118_98
*1310 FILLER_0_119_108
*1311 FILLER_0_119_113
*1312 FILLER_0_119_125
*1313 FILLER_0_119_137
*1314 FILLER_0_119_149
*1315 FILLER_0_119_15
*1316 FILLER_0_119_161
*1317 FILLER_0_119_167
*1318 FILLER_0_119_169
*1319 FILLER_0_119_181
*1320 FILLER_0_119_193
*1321 FILLER_0_119_205
*1322 FILLER_0_119_217
*1323 FILLER_0_119_223
*1324 FILLER_0_119_225
*1325 FILLER_0_119_237
*1326 FILLER_0_119_249
*1327 FILLER_0_119_261
*1328 FILLER_0_119_27
*1329 FILLER_0_119_273
*1330 FILLER_0_119_279
*1331 FILLER_0_119_281
*1332 FILLER_0_119_293
*1333 FILLER_0_119_3
*1334 FILLER_0_119_305
*1335 FILLER_0_119_317
*1336 FILLER_0_119_329
*1337 FILLER_0_119_335
*1338 FILLER_0_119_337
*1339 FILLER_0_119_349
*1340 FILLER_0_119_35
*1341 FILLER_0_119_361
*1342 FILLER_0_119_367
*1343 FILLER_0_119_380
*1344 FILLER_0_119_393
*1345 FILLER_0_119_405
*1346 FILLER_0_119_417
*1347 FILLER_0_119_50
*1348 FILLER_0_119_57
*1349 FILLER_0_119_69
*1350 FILLER_0_119_81
*1351 FILLER_0_119_85
*1352 FILLER_0_11_101
*1353 FILLER_0_11_109
*1354 FILLER_0_11_113
*1355 FILLER_0_11_125
*1356 FILLER_0_11_137
*1357 FILLER_0_11_149
*1358 FILLER_0_11_161
*1359 FILLER_0_11_167
*1360 FILLER_0_11_169
*1361 FILLER_0_11_181
*1362 FILLER_0_11_193
*1363 FILLER_0_11_205
*1364 FILLER_0_11_217
*1365 FILLER_0_11_223
*1366 FILLER_0_11_225
*1367 FILLER_0_11_23
*1368 FILLER_0_11_237
*1369 FILLER_0_11_249
*1370 FILLER_0_11_261
*1371 FILLER_0_11_273
*1372 FILLER_0_11_279
*1373 FILLER_0_11_281
*1374 FILLER_0_11_294
*1375 FILLER_0_11_3
*1376 FILLER_0_11_306
*1377 FILLER_0_11_318
*1378 FILLER_0_11_330
*1379 FILLER_0_11_337
*1380 FILLER_0_11_349
*1381 FILLER_0_11_35
*1382 FILLER_0_11_361
*1383 FILLER_0_11_373
*1384 FILLER_0_11_385
*1385 FILLER_0_11_391
*1386 FILLER_0_11_393
*1387 FILLER_0_11_405
*1388 FILLER_0_11_417
*1389 FILLER_0_11_47
*1390 FILLER_0_11_55
*1391 FILLER_0_11_57
*1392 FILLER_0_11_61
*1393 FILLER_0_11_69
*1394 FILLER_0_11_73
*1395 FILLER_0_11_77
*1396 FILLER_0_11_89
*1397 FILLER_0_120_106
*1398 FILLER_0_120_118
*1399 FILLER_0_120_12
*1400 FILLER_0_120_130
*1401 FILLER_0_120_138
*1402 FILLER_0_120_141
*1403 FILLER_0_120_153
*1404 FILLER_0_120_165
*1405 FILLER_0_120_177
*1406 FILLER_0_120_189
*1407 FILLER_0_120_195
*1408 FILLER_0_120_197
*1409 FILLER_0_120_209
*1410 FILLER_0_120_221
*1411 FILLER_0_120_233
*1412 FILLER_0_120_24
*1413 FILLER_0_120_245
*1414 FILLER_0_120_251
*1415 FILLER_0_120_253
*1416 FILLER_0_120_265
*1417 FILLER_0_120_277
*1418 FILLER_0_120_289
*1419 FILLER_0_120_29
*1420 FILLER_0_120_293
*1421 FILLER_0_120_309
*1422 FILLER_0_120_321
*1423 FILLER_0_120_333
*1424 FILLER_0_120_345
*1425 FILLER_0_120_357
*1426 FILLER_0_120_363
*1427 FILLER_0_120_387
*1428 FILLER_0_120_399
*1429 FILLER_0_120_41
*1430 FILLER_0_120_411
*1431 FILLER_0_120_419
*1432 FILLER_0_120_421
*1433 FILLER_0_120_53
*1434 FILLER_0_120_65
*1435 FILLER_0_120_77
*1436 FILLER_0_120_83
*1437 FILLER_0_120_94
*1438 FILLER_0_121_105
*1439 FILLER_0_121_111
*1440 FILLER_0_121_113
*1441 FILLER_0_121_125
*1442 FILLER_0_121_137
*1443 FILLER_0_121_149
*1444 FILLER_0_121_161
*1445 FILLER_0_121_167
*1446 FILLER_0_121_169
*1447 FILLER_0_121_181
*1448 FILLER_0_121_193
*1449 FILLER_0_121_205
*1450 FILLER_0_121_217
*1451 FILLER_0_121_223
*1452 FILLER_0_121_225
*1453 FILLER_0_121_237
*1454 FILLER_0_121_249
*1455 FILLER_0_121_261
*1456 FILLER_0_121_27
*1457 FILLER_0_121_273
*1458 FILLER_0_121_279
*1459 FILLER_0_121_281
*1460 FILLER_0_121_293
*1461 FILLER_0_121_3
*1462 FILLER_0_121_305
*1463 FILLER_0_121_317
*1464 FILLER_0_121_329
*1465 FILLER_0_121_335
*1466 FILLER_0_121_337
*1467 FILLER_0_121_349
*1468 FILLER_0_121_361
*1469 FILLER_0_121_373
*1470 FILLER_0_121_385
*1471 FILLER_0_121_39
*1472 FILLER_0_121_391
*1473 FILLER_0_121_393
*1474 FILLER_0_121_405
*1475 FILLER_0_121_417
*1476 FILLER_0_121_51
*1477 FILLER_0_121_55
*1478 FILLER_0_121_57
*1479 FILLER_0_121_69
*1480 FILLER_0_121_81
*1481 FILLER_0_121_93
*1482 FILLER_0_122_109
*1483 FILLER_0_122_121
*1484 FILLER_0_122_133
*1485 FILLER_0_122_139
*1486 FILLER_0_122_141
*1487 FILLER_0_122_15
*1488 FILLER_0_122_153
*1489 FILLER_0_122_165
*1490 FILLER_0_122_177
*1491 FILLER_0_122_189
*1492 FILLER_0_122_195
*1493 FILLER_0_122_197
*1494 FILLER_0_122_209
*1495 FILLER_0_122_221
*1496 FILLER_0_122_233
*1497 FILLER_0_122_245
*1498 FILLER_0_122_251
*1499 FILLER_0_122_253
*1500 FILLER_0_122_265
*1501 FILLER_0_122_27
*1502 FILLER_0_122_277
*1503 FILLER_0_122_289
*1504 FILLER_0_122_29
*1505 FILLER_0_122_3
*1506 FILLER_0_122_301
*1507 FILLER_0_122_307
*1508 FILLER_0_122_309
*1509 FILLER_0_122_321
*1510 FILLER_0_122_333
*1511 FILLER_0_122_345
*1512 FILLER_0_122_357
*1513 FILLER_0_122_363
*1514 FILLER_0_122_365
*1515 FILLER_0_122_377
*1516 FILLER_0_122_389
*1517 FILLER_0_122_397
*1518 FILLER_0_122_403
*1519 FILLER_0_122_41
*1520 FILLER_0_122_415
*1521 FILLER_0_122_419
*1522 FILLER_0_122_421
*1523 FILLER_0_122_53
*1524 FILLER_0_122_65
*1525 FILLER_0_122_77
*1526 FILLER_0_122_83
*1527 FILLER_0_122_85
*1528 FILLER_0_122_97
*1529 FILLER_0_123_109
*1530 FILLER_0_123_119
*1531 FILLER_0_123_127
*1532 FILLER_0_123_141
*1533 FILLER_0_123_15
*1534 FILLER_0_123_153
*1535 FILLER_0_123_165
*1536 FILLER_0_123_169
*1537 FILLER_0_123_181
*1538 FILLER_0_123_187