*SPEF "ieee 1481-1999"
*DESIGN "complement"
*DATE "17:46:33 Sunday April 20, 2025"
*VENDOR "The OpenROAD Project"
*PROGRAM "OpenROAD"
*VERSION "b16bda7e82721d10566ff7e2b68f1ff0be9f9e38"
*DESIGN_FLOW "NAME_SCOPE LOCAL" "PIN_CAP NONE"
*DIVIDER /
*DELIMITER :
*BUS_DELIMITER []
*T_UNIT 1 NS
*C_UNIT 1 PF
*R_UNIT 1 OHM
*L_UNIT 1 HENRY

*NAME_MAP
*3 x[0]
*4 x[1]
*5 x[2]
*6 x[3]
*7 x[4]
*8 x[5]
*9 x[6]
*10 x[7]
*11 y[0]
*12 y[1]
*13 y[2]
*14 y[3]
*15 y[4]
*16 y[5]
*17 y[6]
*18 y[7]
*19 _00_
*20 _01_
*21 _02_
*22 _03_
*23 _04_
*24 _05_
*25 _06_
*26 _07_
*27 _08_
*28 _09_
*29 net1
*30 net10
*31 net11
*32 net12
*33 net13
*34 net14
*35 net15
*36 net16
*37 net2
*38 net3
*39 net4
*40 net5
*41 net6
*42 net7
*43 net8
*44 net9
*45 FILLER_0_0_21
*46 FILLER_0_0_27
*47 FILLER_0_0_29
*48 FILLER_0_0_37
*49 FILLER_0_0_9
*50 FILLER_0_10_18
*51 FILLER_0_10_26
*52 FILLER_0_10_29
*53 FILLER_0_10_41
*54 FILLER_0_10_6
*55 FILLER_0_11_21
*56 FILLER_0_11_3
*57 FILLER_0_11_33
*58 FILLER_0_11_41
*59 FILLER_0_11_46
*60 FILLER_0_12_21
*61 FILLER_0_12_27
*62 FILLER_0_12_29
*63 FILLER_0_12_37
*64 FILLER_0_12_9
*65 FILLER_0_1_16
*66 FILLER_0_1_28
*67 FILLER_0_1_3
*68 FILLER_0_1_36
*69 FILLER_0_2_10
*70 FILLER_0_2_14
*71 FILLER_0_2_21
*72 FILLER_0_2_27
*73 FILLER_0_2_3
*74 FILLER_0_2_36
*75 FILLER_0_2_42
*76 FILLER_0_3_18
*77 FILLER_0_3_24
*78 FILLER_0_3_31
*79 FILLER_0_3_38
*80 FILLER_0_3_6
*81 FILLER_0_4_15
*82 FILLER_0_4_27
*83 FILLER_0_4_29
*84 FILLER_0_4_3
*85 FILLER_0_4_38
*86 FILLER_0_4_46
*87 FILLER_0_5_18
*88 FILLER_0_5_30
*89 FILLER_0_5_42
*90 FILLER_0_5_6
*91 FILLER_0_6_15
*92 FILLER_0_6_19
*93 FILLER_0_6_26
*94 FILLER_0_6_29
*95 FILLER_0_6_3
*96 FILLER_0_6_41
*97 FILLER_0_6_47
*98 FILLER_0_7_15
*99 FILLER_0_7_27
*100 FILLER_0_7_39
*101 FILLER_0_7_47
*102 FILLER_0_8_18
*103 FILLER_0_8_25
*104 FILLER_0_8_29
*105 FILLER_0_8_41
*106 FILLER_0_8_6
*107 FILLER_0_9_15
*108 FILLER_0_9_27
*109 FILLER_0_9_3
*110 FILLER_0_9_39
*111 FILLER_0_9_47
*112 PHY_EDGE_ROW_0_Left_13
*113 PHY_EDGE_ROW_0_Right_0
*114 PHY_EDGE_ROW_10_Left_23
*115 PHY_EDGE_ROW_10_Right_10
*116 PHY_EDGE_ROW_11_Left_24
*117 PHY_EDGE_ROW_11_Right_11
*118 PHY_EDGE_ROW_12_Left_25
*119 PHY_EDGE_ROW_12_Right_12
*120 PHY_EDGE_ROW_1_Left_14
*121 PHY_EDGE_ROW_1_Right_1
*122 PHY_EDGE_ROW_2_Left_15
*123 PHY_EDGE_ROW_2_Right_2
*124 PHY_EDGE_ROW_3_Left_16
*125 PHY_EDGE_ROW_3_Right_3
*126 PHY_EDGE_ROW_4_Left_17
*127 PHY_EDGE_ROW_4_Right_4
*128 PHY_EDGE_ROW_5_Left_18
*129 PHY_EDGE_ROW_5_Right_5
*130 PHY_EDGE_ROW_6_Left_19
*131 PHY_EDGE_ROW_6_Right_6
*132 PHY_EDGE_ROW_7_Left_20
*133 PHY_EDGE_ROW_7_Right_7
*134 PHY_EDGE_ROW_8_Left_21
*135 PHY_EDGE_ROW_8_Right_8
*136 PHY_EDGE_ROW_9_Left_22
*137 PHY_EDGE_ROW_9_Right_9
*138 TAP_TAPCELL_ROW_0_26
*139 TAP_TAPCELL_ROW_10_31
*140 TAP_TAPCELL_ROW_12_32
*141 TAP_TAPCELL_ROW_2_27
*142 TAP_TAPCELL_ROW_4_28
*143 TAP_TAPCELL_ROW_6_29
*144 TAP_TAPCELL_ROW_8_30
*145 _10_
*146 _11_
*147 _12_
*148 _13_
*149 _14_
*150 _15_
*151 _16_
*152 _17_
*153 _18_
*154 _19_
*155 _20_
*156 _21_
*157 _22_
*158 _23_
*159 _24_
*160 _25_
*161 _26_
*162 _27_
*163 input1
*164 input2
*165 input3
*166 input4
*167 input5
*168 input6
*169 input7
*170 input8
*171 output10
*172 output11
*173 output12
*174 output13
*175 output14
*176 output15
*177 output16
*178 output9

*PORTS
x[0] I
x[1] I
x[2] I
x[3] I
x[4] I
x[5] I
x[6] I
x[7] I
y[0] O
y[1] O
y[2] O
y[3] O
y[4] O
y[5] O
y[6] O
y[7] O

*D_NET *3 0.00108348
*CONN
*P x[0] I
*I *163:A I *D sky130_fd_sc_hd__buf_1
*CAP
1 x[0] 0.000541738
2 *163:A 0.000541738
3 *163:A *164:A 0
*RES
1 x[0] *163:A 24.4979 
*END

*D_NET *4 0.000827486
*CONN
*P x[1] I
*I *164:A I *D sky130_fd_sc_hd__buf_1
*CAP
1 x[1] 0.000386131
2 *164:A 0.000386131
3 *164:A *165:A 0
4 *164:A *29:10 5.52238e-05
5 *163:A *164:A 0
*RES
1 x[1] *164:A 22.141 
*END

*D_NET *5 0.000572832
*CONN
*P x[2] I
*I *165:A I *D sky130_fd_sc_hd__buf_1
*CAP
1 x[2] 0.000286416
2 *165:A 0.000286416
3 *165:A *166:A 0
4 *164:A *165:A 0
*RES
1 x[2] *165:A 20.4803 
*END

*D_NET *6 0.000701125
*CONN
*P x[3] I
*I *166:A I *D sky130_fd_sc_hd__clkbuf_1
*CAP
1 x[3] 0.000347537
2 *166:A 0.000347537
3 *166:A *148:D 6.05161e-06
4 *166:A *167:A 0
5 *166:A *38:8 0
6 *165:A *166:A 0
*RES
1 x[3] *166:A 21.6946 
*END

*D_NET *7 0.000605554
*CONN
*P x[4] I
*I *167:A I *D sky130_fd_sc_hd__buf_1
*CAP
1 x[4] 0.000302777
2 *167:A 0.000302777
3 *167:A *146:A 0
4 *167:A *168:A 0
5 *166:A *167:A 0
*RES
1 x[4] *167:A 20.7838 
*END

*D_NET *8 0.000715317
*CONN
*P x[5] I
*I *168:A I *D sky130_fd_sc_hd__buf_1
*CAP
1 x[5] 0.000357659
2 *168:A 0.000357659
3 *168:A *146:A 0
4 *168:A *169:A 0
5 *167:A *168:A 0
*RES
1 x[5] *168:A 21.9981 
*END

*D_NET *9 0.000563768
*CONN
*P x[6] I
*I *169:A I *D sky130_fd_sc_hd__clkbuf_1
*CAP
1 x[6] 0.000281884
2 *169:A 0.000281884
3 *169:A *170:A 0
4 *168:A *169:A 0
*RES
1 x[6] *169:A 20.4803 
*END

*D_NET *10 0.00123174
*CONN
*P x[7] I
*I *170:A I *D sky130_fd_sc_hd__buf_1
*CAP
1 x[7] 0.000615872
2 *170:A 0.000615872
3 *169:A *170:A 0
*RES
1 x[7] *170:A 25.0176 
*END

*D_NET *11 0.00116601
*CONN
*P y[0] O
*I *178:X O *D sky130_fd_sc_hd__buf_2
*CAP
1 y[0] 0.000583005
2 *178:X 0.000583005
3 y[0] y[1] 0
*RES
1 *178:X y[0] 23.8754 
*END

*D_NET *12 0.000438356
*CONN
*P y[1] O
*I *171:X O *D sky130_fd_sc_hd__buf_2
*CAP
1 y[1] 0.000219178
2 *171:X 0.000219178
3 y[1] y[2] 0
4 y[0] y[1] 0
*RES
1 *171:X y[1] 18.1229 
*END

*D_NET *13 0.000440675
*CONN
*P y[2] O
*I *172:X O *D sky130_fd_sc_hd__buf_2
*CAP
1 y[2] 0.00021424
2 *172:X 0.00021424
3 y[2] y[3] 0
4 y[2] *173:A 1.21955e-05
5 y[1] y[2] 0
*RES
1 *172:X y[2] 18.1229 
*END

*D_NET *14 0.000584981
*CONN
*P y[3] O
*I *173:X O *D sky130_fd_sc_hd__buf_2
*CAP
1 y[3] 0.000271008
2 *173:X 0.000271008
3 y[3] y[4] 0
4 y[3] *36:12 4.29654e-05
5 y[2] y[3] 0
*RES
1 *173:X y[3] 19.3371 
*END

*D_NET *15 0.000449034
*CONN
*P y[4] O
*I *174:X O *D sky130_fd_sc_hd__buf_2
*CAP
1 y[4] 0.000220263
2 *174:X 0.000220263
3 y[4] y[5] 0
4 y[4] *36:12 8.50795e-06
5 y[3] y[4] 0
*RES
1 *174:X y[4] 18.1229 
*END

*D_NET *16 0.000680116
*CONN
*P y[5] O
*I *175:X O *D sky130_fd_sc_hd__buf_2
*CAP
1 y[5] 0.000257255
2 *175:X 0.000257255
3 y[5] y[6] 0
4 y[5] *152:A 0.000115369
5 y[5] *175:A 3.92854e-05
6 y[5] *36:12 1.09501e-05
7 y[4] y[5] 0
*RES
1 *175:X y[5] 19.3371 
*END

*D_NET *17 0.000767798
*CONN
*P y[6] O
*I *176:X O *D sky130_fd_sc_hd__buf_2
*CAP
1 y[6] 0.000383899
2 *176:X 0.000383899
3 y[6] y[7] 0
4 y[5] y[6] 0
*RES
1 *176:X y[6] 18.5553 
*END

*D_NET *18 0.00103775
*CONN
*P y[7] O
*I *177:X O *D sky130_fd_sc_hd__clkbuf_4
*CAP
1 y[7] 0.000518877
2 *177:X 0.000518877
3 y[6] y[7] 0
*RES
1 *177:X y[7] 24.4258 
*END

*D_NET *19 0.0038948
*CONN
*I *161:A I *D sky130_fd_sc_hd__nor2_1
*I *146:B I *D sky130_fd_sc_hd__xnor2_1
*I *145:Y O *D sky130_fd_sc_hd__nor2_1
*CAP
1 *161:A 0.000436813
2 *146:B 0.000274316
3 *145:Y 0
4 *19:6 0.000711129
5 *146:B *176:A 8.68665e-05
6 *146:B *22:12 0.000261234
7 *146:B *28:12 0.000174919
8 *146:B *29:30 3.25078e-05
9 *146:B *43:10 2.37761e-05
10 *161:A *22:12 0.00132965
11 *161:A *28:12 0.000506438
12 *161:A *36:12 5.71472e-05
*RES
1 *145:Y *19:6 13.8 
2 *19:6 *146:B 20.8536 
3 *19:6 *161:A 31.5679 
*END

*D_NET *20 0.00337691
*CONN
*I *149:A_N I *D sky130_fd_sc_hd__and2b_1
*I *147:X O *D sky130_fd_sc_hd__o31a_1
*CAP
1 *149:A_N 0
2 *147:X 0.000995102
3 *20:14 0.000995102
4 *20:14 *147:A1 5.65955e-05
5 *20:14 *147:A2 6.4484e-05
6 *20:14 *147:A3 0.000100831
7 *20:14 *147:B1 0.000623088
8 *20:14 *151:B 0
9 *20:14 *153:A 8.82242e-05
10 *20:14 *153:B 0.00045348
11 *20:14 *154:B 0
12 *20:14 *156:B1 0
13 *20:14 *157:B 0
14 *20:14 *21:10 0
15 *20:14 *24:16 0
*RES
1 *147:X *20:14 42.2821 
2 *20:14 *149:A_N 9.3 
*END

*D_NET *21 0.00718746
*CONN
*I *151:B I *D sky130_fd_sc_hd__nor2_1
*I *156:A3 I *D sky130_fd_sc_hd__o31ai_1
*I *149:B I *D sky130_fd_sc_hd__and2b_1
*I *152:B I *D sky130_fd_sc_hd__and2_1
*I *155:D I *D sky130_fd_sc_hd__or4_1
*I *148:X O *D sky130_fd_sc_hd__or4_2
*CAP
1 *151:B 0.000178374
2 *156:A3 0
3 *149:B 0.000444588
4 *152:B 0.000275758
5 *155:D 0
6 *148:X 0.000461639
7 *21:31 0.000993195
8 *21:16 0.000505377
9 *21:10 0.00028623
10 *21:8 0.000693715
11 *149:B *176:A 1.13883e-05
12 *149:B *24:16 0.000567284
13 *151:B *151:A 5.75275e-05
14 *151:B *154:B 0.00020042
15 *151:B *157:B 6.98302e-05
16 *152:B *145:A 2.34204e-05
17 *152:B *175:A 1.56e-05
18 *152:B *176:A 0.000262498
19 *152:B *24:16 0.000242996
20 *152:B *43:10 7.90803e-05
21 *21:8 *157:A 0.00018777
22 *21:8 *157:B 2.8109e-05
23 *21:8 *158:A 9.77118e-05
24 *21:10 *154:B 0.00015304
25 *21:10 *157:B 7.83587e-05
26 *21:16 *154:B 0.000539224
27 *21:16 *156:B1 0.000364876
28 *21:31 *145:A 0.000160386
29 *21:31 *152:A 2.28499e-05
30 *21:31 *156:B1 2.14658e-05
31 *21:31 *25:10 7.6644e-05
32 *21:31 *40:12 7.79781e-06
33 *21:31 *43:10 8.03054e-05
34 *20:14 *151:B 0
35 *20:14 *21:10 0
*RES
1 *148:X *21:8 19.675 
2 *21:8 *21:10 1.94643 
3 *21:10 *21:16 12.6607 
4 *21:16 *155:D 9.3 
5 *21:16 *21:31 10 
6 *21:31 *152:B 20.3 
7 *21:31 *149:B 20.1036 
8 *21:10 *156:A3 13.8 
9 *21:8 *151:B 18.1571 
*END

*D_NET *22 0.00631192
*CONN
*I *150:A I *D sky130_fd_sc_hd__clkbuf_1
*I *149:X O *D sky130_fd_sc_hd__and2b_1
*CAP
1 *150:A 0.000224924
2 *149:X 0.000943986
3 *22:12 0.00116891
4 *22:12 *162:A 0.000198698
5 *22:12 *176:A 0.00065682
6 *22:12 *178:A 0
7 *22:12 *29:30 0.000238769
8 *22:12 *33:16 0.00117434
9 *22:12 *43:10 0.000114594
10 *146:B *22:12 0.000261234
11 *161:A *22:12 0.00132965
*RES
1 *149:X *22:12 47.4786 
2 *22:12 *150:A 12.7107 
*END

*D_NET *23 0.00518781
*CONN
*I *153:A I *D sky130_fd_sc_hd__nor2_1
*I *154:B I *D sky130_fd_sc_hd__xnor2_1
*I *151:Y O *D sky130_fd_sc_hd__nor2_1
*CAP
1 *153:A 0.000732566
2 *154:B 0.000476223
3 *151:Y 0
4 *23:6 0.00120879
5 *153:A *147:A1 0.000325181
6 *153:A *147:A2 4.2678e-05
7 *153:A *147:B1 5.52302e-05
8 *153:A *151:A 0
9 *153:A *159:B 0
10 *154:B *151:A 0
11 *154:B *154:A 0.000389982
12 *154:B *156:A2 0.000624705
13 *154:B *156:B1 1.78447e-05
14 *154:B *176:A 2.44318e-05
15 *154:B *24:16 0.000309273
16 *151:B *154:B 0.00020042
17 *20:14 *153:A 8.82242e-05
18 *20:14 *154:B 0
19 *21:10 *154:B 0.00015304
20 *21:16 *154:B 0.000539224
*RES
1 *151:Y *23:6 13.8 
2 *23:6 *154:B 30.5857 
3 *23:6 *153:A 27.9071 
*END

*D_NET *24 0.0056147
*CONN
*I *153:B I *D sky130_fd_sc_hd__nor2_1
*I *152:X O *D sky130_fd_sc_hd__and2_1
*CAP
1 *153:B 0.000844261
2 *152:X 0.000522563
3 *24:16 0.00136682
4 *153:B *147:B1 0.000647803
5 *153:B *33:16 1.00332e-05
6 *24:16 *154:A 2.44318e-05
7 *24:16 *156:B1 9.11048e-06
8 *24:16 *175:A 0.000392026
9 *24:16 *176:A 8.08961e-05
10 *24:16 *41:6 0.000143723
11 *149:B *24:16 0.000567284
12 *152:B *24:16 0.000242996
13 *154:B *24:16 0.000309273
14 *20:14 *153:B 0.00045348
15 *20:14 *24:16 0
*RES
1 *152:X *24:16 37.3179 
2 *24:16 *153:B 33.6571 
*END

*D_NET *25 0.00421231
*CONN
*I *159:B I *D sky130_fd_sc_hd__xor2_1
*I *157:A I *D sky130_fd_sc_hd__and2_1
*I *155:X O *D sky130_fd_sc_hd__or4_1
*CAP
1 *159:B 0.00027663
2 *157:A 0.000357611
3 *155:X 0.000430128
4 *25:10 0.00106437
5 *157:A *157:B 0.000313467
6 *159:B *151:A 0
7 *159:B *33:16 1.41029e-05
8 *159:B *43:10 0.000591441
9 *25:10 *151:A 0
10 *25:10 *152:A 9.60875e-05
11 *25:10 *40:12 0
12 *25:10 *40:38 0
13 *25:10 *43:10 0.000804061
14 *153:A *159:B 0
15 *21:8 *157:A 0.00018777
16 *21:31 *25:10 7.6644e-05
*RES
1 *155:X *25:10 24.8893 
2 *25:10 *157:A 21.3179 
3 *25:10 *159:B 21.5143 
*END

*D_NET *26 0.00101331
*CONN
*I *157:B I *D sky130_fd_sc_hd__and2_1
*I *156:Y O *D sky130_fd_sc_hd__o31ai_1
*CAP
1 *157:B 0.000261772
2 *156:Y 0.000261772
3 *151:B *157:B 6.98302e-05
4 *157:A *157:B 0.000313467
5 *20:14 *157:B 0
6 *21:8 *157:B 2.8109e-05
7 *21:10 *157:B 7.83587e-05
*RES
1 *156:Y *157:B 33.3679 
*END

*D_NET *27 0.00260444
*CONN
*I *158:A I *D sky130_fd_sc_hd__clkbuf_1
*I *157:X O *D sky130_fd_sc_hd__and2_1
*CAP
1 *158:A 0.000284132
2 *157:X 0.000284132
3 *158:A *148:A 2.59355e-05
4 *158:A *29:12 3.51442e-05
5 *158:A *29:18 0.000927101
6 *158:A *37:16 0.00095028
7 *21:8 *158:A 9.77118e-05
*RES
1 *157:X *158:A 40.9214 
*END

*D_NET *28 0.00559294
*CONN
*I *161:B I *D sky130_fd_sc_hd__nor2_1
*I *160:X O *D sky130_fd_sc_hd__and2_1
*CAP
1 *161:B 3.04135e-05
2 *160:X 0.000776281
3 *28:12 0.000806694
4 *161:B *36:12 5.33005e-05
5 *28:12 *146:A 0.000706763
6 *28:12 *176:A 0.00012401
7 *28:12 *178:A 0.00109551
8 *28:12 *29:30 0.000835259
9 *28:12 *31:14 0.000483351
10 *146:B *28:12 0.000174919
11 *161:A *28:12 0.000506438
*RES
1 *160:X *28:12 49.6571 
2 *28:12 *161:B 9.83571 
*END

*D_NET *29 0.010258
*CONN
*I *147:A2 I *D sky130_fd_sc_hd__o31a_1
*I *148:B I *D sky130_fd_sc_hd__or4_2
*I *160:B I *D sky130_fd_sc_hd__and2_1
*I *162:A I *D sky130_fd_sc_hd__clkbuf_1
*I *145:B I *D sky130_fd_sc_hd__nor2_1
*I *163:X O *D sky130_fd_sc_hd__buf_1
*CAP
1 *147:A2 0.000354166
2 *148:B 0
3 *160:B 0
4 *162:A 9.61787e-05
5 *145:B 7.86031e-05
6 *163:X 0.000137591
7 *29:30 0.000960678
8 *29:18 0.00113173
9 *29:12 0.000592292
10 *29:10 0.000738211
11 *145:B *145:A 5.33005e-05
12 *145:B *152:A 0.000136958
13 *147:A2 *147:A1 3.21345e-05
14 *147:A2 *147:B1 1.4487e-05
15 *162:A *43:10 0.000191163
16 *29:10 *37:8 3.34687e-05
17 *29:10 *37:10 5.99221e-05
18 *29:12 *146:A 4.97876e-05
19 *29:12 *37:10 0.000387198
20 *29:12 *37:16 2.58997e-05
21 *29:12 *38:8 0.000663686
22 *29:18 *145:A 9.99853e-05
23 *29:18 *146:A 0.00138145
24 *29:18 *37:16 0.000228367
25 *29:30 *146:A 7.22263e-05
26 *29:30 *43:10 0.000308599
27 *146:B *29:30 3.25078e-05
28 *153:A *147:A2 4.2678e-05
29 *158:A *29:12 3.51442e-05
30 *158:A *29:18 0.000927101
31 *164:A *29:10 5.52238e-05
32 *20:14 *147:A2 6.4484e-05
33 *22:12 *162:A 0.000198698
34 *22:12 *29:30 0.000238769
35 *28:12 *29:30 0.000835259
*RES
1 *163:X *29:10 16.5857 
2 *29:10 *29:12 10.1429 
3 *29:12 *29:18 21.2857 
4 *29:18 *29:30 27.0536 
5 *29:30 *145:B 15.5857 
6 *29:30 *162:A 16.8893 
7 *29:18 *160:B 9.3 
8 *29:12 *148:B 13.8 
9 *29:10 *147:A2 19.425 
*END

*D_NET *30 0.000935768
*CONN
*I *171:A I *D sky130_fd_sc_hd__buf_2
*I *161:Y O *D sky130_fd_sc_hd__nor2_1
*CAP
1 *171:A 0.000275559
2 *161:Y 0.000275559
3 *171:A *173:A 3.5707e-05
4 *171:A *178:A 0.000320031
5 *171:A *36:12 2.89114e-05
*RES
1 *161:Y *171:A 33.5643 
*END

*D_NET *31 0.00415029
*CONN
*I *172:A I *D sky130_fd_sc_hd__buf_2
*I *146:Y O *D sky130_fd_sc_hd__xnor2_1
*CAP
1 *172:A 0
2 *146:Y 0.000787521
3 *31:14 0.000787521
4 *31:14 *178:A 0.00109551
5 *31:14 *36:12 0.000996388
6 *28:12 *31:14 0.000483351
*RES
1 *146:Y *31:14 43.3179 
2 *31:14 *172:A 9.3 
*END

*D_NET *32 0.00111278
*CONN
*I *173:A I *D sky130_fd_sc_hd__buf_2
*I *150:X O *D sky130_fd_sc_hd__clkbuf_1
*CAP
1 *173:A 0.000322638
2 *150:X 0.000322638
3 *173:A *178:A 0
4 *173:A *36:12 0.000419599
5 y[2] *173:A 1.21955e-05
6 *171:A *173:A 3.5707e-05
*RES
1 *150:X *173:A 35.2429 
*END

*D_NET *33 0.00540222
*CONN
*I *174:A I *D sky130_fd_sc_hd__buf_2
*I *153:Y O *D sky130_fd_sc_hd__nor2_1
*CAP
1 *174:A 0.000304083
2 *153:Y 0.00131936
3 *33:16 0.00162344
4 *33:16 *178:A 0
5 *33:16 *43:10 0.000956853
6 *153:B *33:16 1.00332e-05
7 *159:B *33:16 1.41029e-05
8 *22:12 *33:16 0.00117434
*RES
1 *153:Y *33:16 49.8179 
2 *33:16 *174:A 18.0321 
*END

*D_NET *34 0.00136948
*CONN
*I *175:A I *D sky130_fd_sc_hd__buf_2
*I *154:Y O *D sky130_fd_sc_hd__xnor2_1
*CAP
1 *175:A 0.000382073
2 *154:Y 0.000382073
3 *175:A *152:A 7.79781e-06
4 *175:A *36:12 0.000150625
5 y[5] *175:A 3.92854e-05
6 *152:B *175:A 1.56e-05
7 *24:16 *175:A 0.000392026
*RES
1 *154:Y *175:A 33.7786 
*END

*D_NET *35 0.00297852
*CONN
*I *176:A I *D sky130_fd_sc_hd__buf_2
*I *158:X O *D sky130_fd_sc_hd__clkbuf_1
*CAP
1 *176:A 0.000708734
2 *158:X 0.000708734
3 *176:A *154:A 0.000314139
4 *176:A *36:12 0
5 *176:A *43:10 0
6 *146:B *176:A 8.68665e-05
7 *149:B *176:A 1.13883e-05
8 *152:B *176:A 0.000262498
9 *154:B *176:A 2.44318e-05
10 *22:12 *176:A 0.00065682
11 *24:16 *176:A 8.08961e-05
12 *28:12 *176:A 0.00012401
*RES
1 *158:X *176:A 44.7429 
*END

*D_NET *36 0.0038143
*CONN
*I *177:A I *D sky130_fd_sc_hd__clkbuf_4
*I *159:X O *D sky130_fd_sc_hd__xor2_1
*CAP
1 *177:A 0
2 *159:X 0.00101952
3 *36:12 0.00101952
4 *36:12 *152:A 0
5 *36:12 *178:A 6.8646e-06
6 y[3] *36:12 4.29654e-05
7 y[4] *36:12 8.50795e-06
8 y[5] *36:12 1.09501e-05
9 *161:A *36:12 5.71472e-05
10 *161:B *36:12 5.33005e-05
11 *171:A *36:12 2.89114e-05
12 *173:A *36:12 0.000419599
13 *175:A *36:12 0.000150625
14 *176:A *36:12 0
15 *31:14 *36:12 0.000996388
*RES
1 *159:X *36:12 45.6036 
2 *36:12 *177:A 9.3 
*END

*D_NET *37 0.00798972
*CONN
*I *147:A1 I *D sky130_fd_sc_hd__o31a_1
*I *148:A I *D sky130_fd_sc_hd__or4_2
*I *145:A I *D sky130_fd_sc_hd__nor2_1
*I *160:A I *D sky130_fd_sc_hd__and2_1
*I *164:X O *D sky130_fd_sc_hd__buf_1
*CAP
1 *147:A1 0.000339091
2 *148:A 6.27567e-05
3 *145:A 0.000688487
4 *160:A 0
5 *164:X 5.3289e-05
6 *37:16 0.00137012
7 *37:10 0.00118022
8 *37:8 0.000828208
9 *145:A *146:A 0.000680701
10 *145:A *152:A 0.000192679
11 *145:A *156:A2 0
12 *145:A *40:12 1.02504e-05
13 *145:A *42:12 0.000119015
14 *147:A1 *147:B1 2.8266e-06
15 *145:B *145:A 5.33005e-05
16 *147:A2 *147:A1 3.21345e-05
17 *152:B *145:A 2.34204e-05
18 *153:A *147:A1 0.000325181
19 *158:A *148:A 2.59355e-05
20 *158:A *37:16 0.00095028
21 *20:14 *147:A1 5.65955e-05
22 *21:31 *145:A 0.000160386
23 *29:10 *37:8 3.34687e-05
24 *29:10 *37:10 5.99221e-05
25 *29:12 *37:10 0.000387198
26 *29:12 *37:16 2.58997e-05
27 *29:18 *145:A 9.99853e-05
28 *29:18 *37:16 0.000228367
*RES
1 *164:X *37:8 14.8357 
2 *37:8 *37:10 10.4464 
3 *37:10 *37:16 20.8571 
4 *37:16 *160:A 9.3 
5 *37:16 *145:A 33.6929 
6 *37:10 *148:A 14.7464 
7 *37:8 *147:A1 27.8893 
*END

*D_NET *38 0.00701801
*CONN
*I *147:A3 I *D sky130_fd_sc_hd__o31a_1
*I *148:C I *D sky130_fd_sc_hd__or4_2
*I *146:A I *D sky130_fd_sc_hd__xnor2_1
*I *165:X O *D sky130_fd_sc_hd__buf_1
*CAP
1 *147:A3 0.000517617
2 *148:C 0
3 *146:A 0.000849243
4 *165:X 0
5 *38:8 0.00113697
6 *38:4 0.000805347
7 *38:8 *148:D 5.33786e-05
8 *145:A *146:A 0.000680701
9 *166:A *38:8 0
10 *167:A *146:A 0
11 *168:A *146:A 0
12 *20:14 *147:A3 0.000100831
13 *28:12 *146:A 0.000706763
14 *29:12 *146:A 4.97876e-05
15 *29:12 *38:8 0.000663686
16 *29:18 *146:A 0.00138145
17 *29:30 *146:A 7.22263e-05
*RES
1 *165:X *38:4 9.3 
2 *38:4 *38:8 12.8214 
3 *38:8 *146:A 39.2464 
4 *38:8 *148:C 13.8 
5 *38:4 *147:A3 24.2821 
*END

*D_NET *39 0.0028262
*CONN
*I *147:B1 I *D sky130_fd_sc_hd__o31a_1
*I *148:D I *D sky130_fd_sc_hd__or4_2
*I *166:X O *D sky130_fd_sc_hd__clkbuf_1
*CAP
1 *147:B1 0.000565922
2 *148:D 0.000145746
3 *166:X 0
4 *39:4 0.000711669
5 *147:A1 *147:B1 2.8266e-06
6 *147:A2 *147:B1 1.4487e-05
7 *153:A *147:B1 5.52302e-05
8 *153:B *147:B1 0.000647803
9 *166:A *148:D 6.05161e-06
10 *20:14 *147:B1 0.000623088
11 *38:8 *148:D 5.33786e-05
*RES
1 *166:X *39:4 9.3 
2 *39:4 *148:D 20.5857 
3 *39:4 *147:B1 30.9786 
*END

*D_NET *40 0.00564648
*CONN
*I *151:A I *D sky130_fd_sc_hd__nor2_1
*I *156:A1 I *D sky130_fd_sc_hd__o31ai_1
*I *155:A I *D sky130_fd_sc_hd__or4_1
*I *152:A I *D sky130_fd_sc_hd__and2_1
*I *167:X O *D sky130_fd_sc_hd__buf_1
*CAP
1 *151:A 0.000471709
2 *156:A1 8.61686e-05
3 *155:A 0
4 *152:A 0.000626498
5 *167:X 0.000907458
6 *40:38 0.000730091
7 *40:12 0.000862034
8 *40:8 0.00131521
9 *40:12 *156:A2 0
10 *40:38 *156:A2 0
11 y[5] *152:A 0.000115369
12 *145:A *152:A 0.000192679
13 *145:A *40:12 1.02504e-05
14 *145:B *152:A 0.000136958
15 *151:B *151:A 5.75275e-05
16 *153:A *151:A 0
17 *154:B *151:A 0
18 *159:B *151:A 0
19 *175:A *152:A 7.79781e-06
20 *21:31 *152:A 2.28499e-05
21 *21:31 *40:12 7.79781e-06
22 *25:10 *151:A 0
23 *25:10 *152:A 9.60875e-05
24 *25:10 *40:12 0
25 *25:10 *40:38 0
26 *36:12 *152:A 0
*RES
1 *167:X *40:8 23.3714 
2 *40:8 *40:12 8.57143 
3 *40:12 *152:A 29.1571 
4 *40:12 *155:A 9.3 
5 *40:8 *40:38 3.16071 
6 *40:38 *156:A1 15.1571 
7 *40:38 *151:A 22.1036 
*END

*D_NET *41 0.00404607
*CONN
*I *155:B I *D sky130_fd_sc_hd__or4_1
*I *156:A2 I *D sky130_fd_sc_hd__o31ai_1
*I *154:A I *D sky130_fd_sc_hd__xnor2_1
*I *168:X O *D sky130_fd_sc_hd__buf_1
*CAP
1 *155:B 3.34544e-05
2 *156:A2 0.000321063
3 *154:A 0.00013433
4 *168:X 0.000672972
5 *41:8 0.000455393
6 *41:6 0.000706426
7 *154:A *42:12 6.94775e-05
8 *155:B *156:B1 2.89114e-05
9 *156:A2 *42:12 2.94103e-05
10 *41:6 *156:B1 9.76491e-05
11 *145:A *156:A2 0
12 *154:B *154:A 0.000389982
13 *154:B *156:A2 0.000624705
14 *176:A *154:A 0.000314139
15 *24:16 *154:A 2.44318e-05
16 *24:16 *41:6 0.000143723
17 *40:12 *156:A2 0
18 *40:38 *156:A2 0
*RES
1 *168:X *41:6 17.2286 
2 *41:6 *41:8 4.5 
3 *41:8 *154:A 18.7464 
4 *41:8 *156:A2 22.1482 
5 *41:6 *155:B 9.83571 
*END

*D_NET *42 0.00426781
*CONN
*I *155:C I *D sky130_fd_sc_hd__or4_1
*I *156:B1 I *D sky130_fd_sc_hd__o31ai_1
*I *169:X O *D sky130_fd_sc_hd__clkbuf_1
*CAP
1 *155:C 0
2 *156:B1 0.000401346
3 *169:X 0.000954734
4 *42:12 0.00135608
5 *42:12 *43:10 0.000797885
6 *145:A *42:12 0.000119015
7 *154:A *42:12 6.94775e-05
8 *154:B *156:B1 1.78447e-05
9 *155:B *156:B1 2.89114e-05
10 *156:A2 *42:12 2.94103e-05
11 *20:14 *156:B1 0
12 *21:16 *156:B1 0.000364876
13 *21:31 *156:B1 2.14658e-05
14 *24:16 *156:B1 9.11048e-06
15 *41:6 *156:B1 9.76491e-05
*RES
1 *169:X *42:12 33.55 
2 *42:12 *156:B1 28.3 
3 *42:12 *155:C 9.3 
*END

*D_NET *43 0.00612788
*CONN
*I *159:A I *D sky130_fd_sc_hd__xor2_1
*I *170:X O *D sky130_fd_sc_hd__buf_1
*CAP
1 *159:A 0
2 *170:X 0.00109006
3 *43:10 0.00109006
4 *146:B *43:10 2.37761e-05
5 *152:B *43:10 7.90803e-05
6 *159:B *43:10 0.000591441
7 *162:A *43:10 0.000191163
8 *176:A *43:10 0
9 *21:31 *43:10 8.03054e-05
10 *22:12 *43:10 0.000114594
11 *25:10 *43:10 0.000804061
12 *29:30 *43:10 0.000308599
13 *33:16 *43:10 0.000956853
14 *42:12 *43:10 0.000797885
*RES
1 *170:X *43:10 47.9964 
2 *43:10 *159:A 13.8 
*END

*D_NET *44 0.003674
*CONN
*I *178:A I *D sky130_fd_sc_hd__buf_2
*I *162:X O *D sky130_fd_sc_hd__clkbuf_1
*CAP
1 *178:A 0.00057804
2 *162:X 0.00057804
3 *171:A *178:A 0.000320031
4 *173:A *178:A 0
5 *22:12 *178:A 0
6 *28:12 *178:A 0.00109551
7 *31:14 *178:A 0.00109551
8 *33:16 *178:A 0
9 *36:12 *178:A 6.8646e-06
*RES
1 *162:X *178:A 47.6 
*END
