*SPEF "ieee 1481-1999"
*DESIGN "zero_to_five_counter"
*DATE "19:22:05 Thursday May 22, 2025"
*VENDOR "The OpenROAD Project"
*PROGRAM "OpenROAD"
*VERSION "b16bda7e82721d10566ff7e2b68f1ff0be9f9e38"
*DESIGN_FLOW "NAME_SCOPE LOCAL" "PIN_CAP NONE"
*DIVIDER /
*DELIMITER :
*BUS_DELIMITER []
*T_UNIT 1 NS
*C_UNIT 1 PF
*R_UNIT 1 OHM
*L_UNIT 1 HENRY

*NAME_MAP
*3 clk
*4 count[0]
*5 count[1]
*6 count[2]
*7 reset
*8 _000_
*9 _001_
*10 _002_
*11 _003_
*12 _004_
*13 _005_
*14 _006_
*15 _007_
*16 _008_
*17 _009_
*18 _010_
*19 _011_
*20 _012_
*21 _013_
*22 _014_
*23 _015_
*24 _016_
*25 _017_
*26 _018_
*27 _019_
*28 _020_
*29 _021_
*30 _022_
*31 _023_
*32 _024_
*33 _025_
*34 _026_
*35 _027_
*36 _028_
*37 _029_
*38 _030_
*39 _031_
*40 _032_
*41 _033_
*42 _034_
*43 _035_
*44 _036_
*45 _037_
*46 _038_
*47 _039_
*48 _040_
*49 _041_
*50 _042_
*51 _043_
*52 _044_
*53 _045_
*54 _046_
*55 _047_
*56 _048_
*57 _049_
*58 _050_
*59 _051_
*60 _052_
*61 _053_
*62 _054_
*63 _055_
*64 _056_
*65 _057_
*66 _058_
*67 _059_
*68 _060_
*69 _061_
*70 _062_
*71 _063_
*72 _064_
*73 _065_
*74 _066_
*75 _067_
*76 _068_
*77 _069_
*78 _070_
*79 _071_
*80 _072_
*81 _073_
*82 _074_
*83 _075_
*84 _076_
*85 _077_
*86 _078_
*87 _079_
*88 _080_
*89 _081_
*90 _082_
*91 _083_
*92 _084_
*93 _085_
*94 _086_
*95 _087_
*96 _088_
*97 _089_
*98 _090_
*99 _091_
*100 _092_
*101 _093_
*102 _094_
*103 _095_
*104 _096_
*105 _097_
*106 _098_
*107 _099_
*108 _100_
*109 _101_
*110 _102_
*111 _103_
*112 _104_
*113 _105_
*114 _106_
*115 _107_
*116 _108_
*117 _109_
*118 _110_
*119 _111_
*120 _112_
*121 _113_
*122 _114_
*123 _115_
*124 _116_
*125 _117_
*126 _118_
*127 _119_
*128 _120_
*129 _121_
*130 _122_
*131 _123_
*132 _124_
*133 _125_
*134 _126_
*135 _127_
*136 _128_
*137 _129_
*138 _130_
*139 _131_
*140 _132_
*141 _133_
*142 _134_
*143 _135_
*144 _136_
*145 _137_
*146 _138_
*147 _139_
*148 _140_
*149 _141_
*150 _142_
*151 _143_
*152 _144_
*153 _145_
*154 _146_
*155 _147_
*156 _148_
*157 _149_
*158 _150_
*159 _151_
*160 _152_
*161 _153_
*162 _154_
*163 _155_
*164 _156_
*165 _157_
*166 _158_
*167 _159_
*168 _160_
*169 _161_
*170 _162_
*171 _163_
*172 clknet_0_clk
*173 clknet_2_0__leaf_clk
*174 clknet_2_1__leaf_clk
*175 clknet_2_2__leaf_clk
*176 clknet_2_3__leaf_clk
*177 net1
*178 net2
*179 net3
*180 one_second_counter\[0\]
*181 one_second_counter\[10\]
*182 one_second_counter\[11\]
*183 one_second_counter\[12\]
*184 one_second_counter\[13\]
*185 one_second_counter\[14\]
*186 one_second_counter\[15\]
*187 one_second_counter\[16\]
*188 one_second_counter\[17\]
*189 one_second_counter\[18\]
*190 one_second_counter\[19\]
*191 one_second_counter\[1\]
*192 one_second_counter\[20\]
*193 one_second_counter\[21\]
*194 one_second_counter\[22\]
*195 one_second_counter\[23\]
*196 one_second_counter\[24\]
*197 one_second_counter\[25\]
*198 one_second_counter\[26\]
*199 one_second_counter\[2\]
*200 one_second_counter\[3\]
*201 one_second_counter\[4\]
*202 one_second_counter\[5\]
*203 one_second_counter\[6\]
*204 one_second_counter\[7\]
*205 one_second_counter\[8\]
*206 one_second_counter\[9\]
*207 ANTENNA_1
*208 ANTENNA_2
*209 ANTENNA_3
*210 FILLER_0_0_108
*211 FILLER_0_0_113
*212 FILLER_0_0_24
*213 FILLER_0_0_29
*214 FILLER_0_0_41
*215 FILLER_0_0_53
*216 FILLER_0_0_57
*217 FILLER_0_0_64
*218 FILLER_0_0_77
*219 FILLER_0_0_83
*220 FILLER_0_0_85
*221 FILLER_0_0_96
*222 FILLER_0_10_105
*223 FILLER_0_10_120
*224 FILLER_0_10_124
*225 FILLER_0_10_27
*226 FILLER_0_10_3
*227 FILLER_0_10_35
*228 FILLER_0_10_43
*229 FILLER_0_10_55
*230 FILLER_0_10_63
*231 FILLER_0_10_67
*232 FILLER_0_10_82
*233 FILLER_0_11_105
*234 FILLER_0_11_111
*235 FILLER_0_11_12
*236 FILLER_0_11_123
*237 FILLER_0_11_18
*238 FILLER_0_11_3
*239 FILLER_0_11_55
*240 FILLER_0_11_81
*241 FILLER_0_11_93
*242 FILLER_0_12_120
*243 FILLER_0_12_124
*244 FILLER_0_12_15
*245 FILLER_0_12_27
*246 FILLER_0_12_29
*247 FILLER_0_12_3
*248 FILLER_0_12_52
*249 FILLER_0_12_66
*250 FILLER_0_12_73
*251 FILLER_0_12_82
*252 FILLER_0_12_88
*253 FILLER_0_12_96
*254 FILLER_0_13_113
*255 FILLER_0_13_121
*256 FILLER_0_13_18
*257 FILLER_0_13_30
*258 FILLER_0_13_34
*259 FILLER_0_13_57
*260 FILLER_0_13_6
*261 FILLER_0_14_117
*262 FILLER_0_14_15
*263 FILLER_0_14_27
*264 FILLER_0_14_29
*265 FILLER_0_14_3
*266 FILLER_0_14_41
*267 FILLER_0_14_53
*268 FILLER_0_14_61
*269 FILLER_0_14_72
*270 FILLER_0_14_85
*271 FILLER_0_14_89
*272 FILLER_0_14_95
*273 FILLER_0_15_111
*274 FILLER_0_15_119
*275 FILLER_0_15_18
*276 FILLER_0_15_30
*277 FILLER_0_15_36
*278 FILLER_0_15_44
*279 FILLER_0_15_51
*280 FILLER_0_15_55
*281 FILLER_0_15_57
*282 FILLER_0_15_6
*283 FILLER_0_15_69
*284 FILLER_0_15_75
*285 FILLER_0_15_87
*286 FILLER_0_15_99
*287 FILLER_0_16_107
*288 FILLER_0_16_119
*289 FILLER_0_16_15
*290 FILLER_0_16_27
*291 FILLER_0_16_29
*292 FILLER_0_16_3
*293 FILLER_0_16_45
*294 FILLER_0_16_56
*295 FILLER_0_16_60
*296 FILLER_0_16_81
*297 FILLER_0_16_88
*298 FILLER_0_16_95
*299 FILLER_0_17_101
*300 FILLER_0_17_108
*301 FILLER_0_17_113
*302 FILLER_0_17_15
*303 FILLER_0_17_27
*304 FILLER_0_17_3
*305 FILLER_0_17_39
*306 FILLER_0_17_43
*307 FILLER_0_17_52
*308 FILLER_0_17_60
*309 FILLER_0_17_68
*310 FILLER_0_17_89
*311 FILLER_0_18_109
*312 FILLER_0_18_118
*313 FILLER_0_18_14
*314 FILLER_0_18_26
*315 FILLER_0_18_29
*316 FILLER_0_18_3
*317 FILLER_0_18_41
*318 FILLER_0_18_53
*319 FILLER_0_18_63
*320 FILLER_0_18_7
*321 FILLER_0_18_75
*322 FILLER_0_18_82
*323 FILLER_0_18_85
*324 FILLER_0_18_97
*325 FILLER_0_19_105
*326 FILLER_0_19_111
*327 FILLER_0_19_113
*328 FILLER_0_19_20
*329 FILLER_0_19_32
*330 FILLER_0_19_40
*331 FILLER_0_19_47
*332 FILLER_0_19_55
*333 FILLER_0_19_57
*334 FILLER_0_19_69
*335 FILLER_0_19_81
*336 FILLER_0_19_93
*337 FILLER_0_1_113
*338 FILLER_0_1_121
*339 FILLER_0_1_15
*340 FILLER_0_1_3
*341 FILLER_0_1_44
*342 FILLER_0_1_57
*343 FILLER_0_1_69
*344 FILLER_0_1_77
*345 FILLER_0_1_89
*346 FILLER_0_20_102
*347 FILLER_0_20_11
*348 FILLER_0_20_110
*349 FILLER_0_20_122
*350 FILLER_0_20_17
*351 FILLER_0_20_24
*352 FILLER_0_20_29
*353 FILLER_0_20_3
*354 FILLER_0_20_42
*355 FILLER_0_20_56
*356 FILLER_0_20_64
*357 FILLER_0_20_77
*358 FILLER_0_20_81
*359 FILLER_0_20_85
*360 FILLER_0_20_98
*361 FILLER_0_21_11
*362 FILLER_0_21_110
*363 FILLER_0_21_113
*364 FILLER_0_21_120
*365 FILLER_0_21_124
*366 FILLER_0_21_18
*367 FILLER_0_21_3
*368 FILLER_0_21_30
*369 FILLER_0_21_42
*370 FILLER_0_21_54
*371 FILLER_0_21_80
*372 FILLER_0_22_10
*373 FILLER_0_22_113
*374 FILLER_0_22_17
*375 FILLER_0_22_25
*376 FILLER_0_22_29
*377 FILLER_0_22_3
*378 FILLER_0_22_37
*379 FILLER_0_22_43
*380 FILLER_0_22_47
*381 FILLER_0_22_51
*382 FILLER_0_22_82
*383 FILLER_0_22_90
*384 FILLER_0_23_111
*385 FILLER_0_23_113
*386 FILLER_0_23_13
*387 FILLER_0_23_25
*388 FILLER_0_23_37
*389 FILLER_0_23_43
*390 FILLER_0_23_52
*391 FILLER_0_23_6
*392 FILLER_0_24_105
*393 FILLER_0_24_114
*394 FILLER_0_24_122
*395 FILLER_0_24_15
*396 FILLER_0_24_27
*397 FILLER_0_24_29
*398 FILLER_0_24_3
*399 FILLER_0_24_37
*400 FILLER_0_24_82
*401 FILLER_0_25_113
*402 FILLER_0_25_15
*403 FILLER_0_25_3
*404 FILLER_0_25_32
*405 FILLER_0_25_44
*406 FILLER_0_25_57
*407 FILLER_0_25_65
*408 FILLER_0_25_69
*409 FILLER_0_25_76
*410 FILLER_0_25_88
*411 FILLER_0_26_102
*412 FILLER_0_26_107
*413 FILLER_0_26_111
*414 FILLER_0_26_115
*415 FILLER_0_26_123
*416 FILLER_0_26_18
*417 FILLER_0_26_36
*418 FILLER_0_26_59
*419 FILLER_0_26_6
*420 FILLER_0_26_71
*421 FILLER_0_26_83
*422 FILLER_0_26_85
*423 FILLER_0_26_93
*424 FILLER_0_27_104
*425 FILLER_0_27_15
*426 FILLER_0_27_27
*427 FILLER_0_27_3
*428 FILLER_0_27_35
*429 FILLER_0_27_57
*430 FILLER_0_27_65
*431 FILLER_0_27_73
*432 FILLER_0_27_85
*433 FILLER_0_27_97
*434 FILLER_0_28_107
*435 FILLER_0_28_114
*436 FILLER_0_28_23
*437 FILLER_0_28_27
*438 FILLER_0_28_29
*439 FILLER_0_28_62
*440 FILLER_0_28_8
*441 FILLER_0_28_94
*442 FILLER_0_29_11
*443 FILLER_0_29_111
*444 FILLER_0_29_113
*445 FILLER_0_29_15
*446 FILLER_0_29_27
*447 FILLER_0_29_3
*448 FILLER_0_29_39
*449 FILLER_0_29_51
*450 FILLER_0_29_55
*451 FILLER_0_29_57
*452 FILLER_0_29_70
*453 FILLER_0_29_99
*454 FILLER_0_2_105
*455 FILLER_0_2_117
*456 FILLER_0_2_15
*457 FILLER_0_2_26
*458 FILLER_0_2_3
*459 FILLER_0_2_32
*460 FILLER_0_2_44
*461 FILLER_0_2_53
*462 FILLER_0_2_65
*463 FILLER_0_2_71
*464 FILLER_0_2_77
*465 FILLER_0_30_100
*466 FILLER_0_30_112
*467 FILLER_0_30_118
*468 FILLER_0_30_16
*469 FILLER_0_30_23
*470 FILLER_0_30_27
*471 FILLER_0_30_29
*472 FILLER_0_30_3
*473 FILLER_0_30_44
*474 FILLER_0_30_56
*475 FILLER_0_30_68
*476 FILLER_0_30_80
*477 FILLER_0_30_85
*478 FILLER_0_30_93
*479 FILLER_0_31_109
*480 FILLER_0_31_11
*481 FILLER_0_31_116
*482 FILLER_0_31_124
*483 FILLER_0_31_3
*484 FILLER_0_31_52
*485 FILLER_0_31_57
*486 FILLER_0_31_69
*487 FILLER_0_31_81
*488 FILLER_0_31_85
*489 FILLER_0_31_97
*490 FILLER_0_3_105
*491 FILLER_0_3_110
*492 FILLER_0_3_113
*493 FILLER_0_3_121
*494 FILLER_0_3_19
*495 FILLER_0_3_3
*496 FILLER_0_3_31
*497 FILLER_0_3_37
*498 FILLER_0_3_41
*499 FILLER_0_3_53
*500 FILLER_0_3_57
*501 FILLER_0_3_69
*502 FILLER_0_3_7
*503 FILLER_0_3_81
*504 FILLER_0_3_93
*505 FILLER_0_4_101
*506 FILLER_0_4_11
*507 FILLER_0_4_122
*508 FILLER_0_4_23
*509 FILLER_0_4_27
*510 FILLER_0_4_29
*511 FILLER_0_4_3
*512 FILLER_0_4_35
*513 FILLER_0_4_43
*514 FILLER_0_4_49
*515 FILLER_0_4_55
*516 FILLER_0_4_65
*517 FILLER_0_4_77
*518 FILLER_0_4_83
*519 FILLER_0_4_85
*520 FILLER_0_4_97
*521 FILLER_0_5_104
*522 FILLER_0_5_118
*523 FILLER_0_5_123
*524 FILLER_0_5_31
*525 FILLER_0_5_46
*526 FILLER_0_5_54
*527 FILLER_0_5_6
*528 FILLER_0_5_80
*529 FILLER_0_5_92
*530 FILLER_0_6_109
*531 FILLER_0_6_121
*532 FILLER_0_6_26
*533 FILLER_0_6_29
*534 FILLER_0_6_60
*535 FILLER_0_6_72
*536 FILLER_0_6_85
*537 FILLER_0_6_97
*538 FILLER_0_7_107
*539 FILLER_0_7_111
*540 FILLER_0_7_118
*541 FILLER_0_7_124
*542 FILLER_0_7_43
*543 FILLER_0_7_55
*544 FILLER_0_7_57
*545 FILLER_0_7_69
*546 FILLER_0_7_75
*547 FILLER_0_7_83
*548 FILLER_0_7_95
*549 FILLER_0_8_105
*550 FILLER_0_8_117
*551 FILLER_0_8_13
*552 FILLER_0_8_25
*553 FILLER_0_8_29
*554 FILLER_0_8_3
*555 FILLER_0_8_37
*556 FILLER_0_8_63
*557 FILLER_0_8_72
*558 FILLER_0_8_9
*559 FILLER_0_8_99
*560 FILLER_0_9_101
*561 FILLER_0_9_109
*562 FILLER_0_9_113
*563 FILLER_0_9_3
*564 FILLER_0_9_36
*565 FILLER_0_9_48
*566 FILLER_0_9_57
*567 FILLER_0_9_65
*568 FILLER_0_9_71
*569 FILLER_0_9_77
*570 PHY_EDGE_ROW_0_Left_32
*571 PHY_EDGE_ROW_0_Right_0
*572 PHY_EDGE_ROW_10_Left_42
*573 PHY_EDGE_ROW_10_Right_10
*574 PHY_EDGE_ROW_11_Left_43
*575 PHY_EDGE_ROW_11_Right_11
*576 PHY_EDGE_ROW_12_Left_44
*577 PHY_EDGE_ROW_12_Right_12
*578 PHY_EDGE_ROW_13_Left_45
*579 PHY_EDGE_ROW_13_Right_13
*580 PHY_EDGE_ROW_14_Left_46
*581 PHY_EDGE_ROW_14_Right_14
*582 PHY_EDGE_ROW_15_Left_47
*583 PHY_EDGE_ROW_15_Right_15
*584 PHY_EDGE_ROW_16_Left_48
*585 PHY_EDGE_ROW_16_Right_16
*586 PHY_EDGE_ROW_17_Left_49
*587 PHY_EDGE_ROW_17_Right_17
*588 PHY_EDGE_ROW_18_Left_50
*589 PHY_EDGE_ROW_18_Right_18
*590 PHY_EDGE_ROW_19_Left_51
*591 PHY_EDGE_ROW_19_Right_19
*592 PHY_EDGE_ROW_1_Left_33
*593 PHY_EDGE_ROW_1_Right_1
*594 PHY_EDGE_ROW_20_Left_52
*595 PHY_EDGE_ROW_20_Right_20
*596 PHY_EDGE_ROW_21_Left_53
*597 PHY_EDGE_ROW_21_Right_21
*598 PHY_EDGE_ROW_22_Left_54
*599 PHY_EDGE_ROW_22_Right_22
*600 PHY_EDGE_ROW_23_Left_55
*601 PHY_EDGE_ROW_23_Right_23
*602 PHY_EDGE_ROW_24_Left_56
*603 PHY_EDGE_ROW_24_Right_24
*604 PHY_EDGE_ROW_25_Left_57
*605 PHY_EDGE_ROW_25_Right_25
*606 PHY_EDGE_ROW_26_Left_58
*607 PHY_EDGE_ROW_26_Right_26
*608 PHY_EDGE_ROW_27_Left_59
*609 PHY_EDGE_ROW_27_Right_27
*610 PHY_EDGE_ROW_28_Left_60
*611 PHY_EDGE_ROW_28_Right_28
*612 PHY_EDGE_ROW_29_Left_61
*613 PHY_EDGE_ROW_29_Right_29
*614 PHY_EDGE_ROW_2_Left_34
*615 PHY_EDGE_ROW_2_Right_2
*616 PHY_EDGE_ROW_30_Left_62
*617 PHY_EDGE_ROW_30_Right_30
*618 PHY_EDGE_ROW_31_Left_63
*619 PHY_EDGE_ROW_31_Right_31
*620 PHY_EDGE_ROW_3_Left_35
*621 PHY_EDGE_ROW_3_Right_3
*622 PHY_EDGE_ROW_4_Left_36
*623 PHY_EDGE_ROW_4_Right_4
*624 PHY_EDGE_ROW_5_Left_37
*625 PHY_EDGE_ROW_5_Right_5
*626 PHY_EDGE_ROW_6_Left_38
*627 PHY_EDGE_ROW_6_Right_6
*628 PHY_EDGE_ROW_7_Left_39
*629 PHY_EDGE_ROW_7_Right_7
*630 PHY_EDGE_ROW_8_Left_40
*631 PHY_EDGE_ROW_8_Right_8
*632 PHY_EDGE_ROW_9_Left_41
*633 PHY_EDGE_ROW_9_Right_9
*634 TAP_TAPCELL_ROW_0_64
*635 TAP_TAPCELL_ROW_0_65
*636 TAP_TAPCELL_ROW_0_66
*637 TAP_TAPCELL_ROW_0_67
*638 TAP_TAPCELL_ROW_10_86
*639 TAP_TAPCELL_ROW_10_87
*640 TAP_TAPCELL_ROW_11_88
*641 TAP_TAPCELL_ROW_11_89
*642 TAP_TAPCELL_ROW_12_90
*643 TAP_TAPCELL_ROW_12_91
*644 TAP_TAPCELL_ROW_13_92
*645 TAP_TAPCELL_ROW_13_93
*646 TAP_TAPCELL_ROW_14_94
*647 TAP_TAPCELL_ROW_14_95
*648 TAP_TAPCELL_ROW_15_96
*649 TAP_TAPCELL_ROW_15_97
*650 TAP_TAPCELL_ROW_16_98
*651 TAP_TAPCELL_ROW_16_99
*652 TAP_TAPCELL_ROW_17_100
*653 TAP_TAPCELL_ROW_17_101
*654 TAP_TAPCELL_ROW_18_102
*655 TAP_TAPCELL_ROW_18_103
*656 TAP_TAPCELL_ROW_19_104
*657 TAP_TAPCELL_ROW_19_105
*658 TAP_TAPCELL_ROW_1_68
*659 TAP_TAPCELL_ROW_1_69
*660 TAP_TAPCELL_ROW_20_106
*661 TAP_TAPCELL_ROW_20_107
*662 TAP_TAPCELL_ROW_21_108
*663 TAP_TAPCELL_ROW_21_109
*664 TAP_TAPCELL_ROW_22_110
*665 TAP_TAPCELL_ROW_22_111
*666 TAP_TAPCELL_ROW_23_112
*667 TAP_TAPCELL_ROW_23_113
*668 TAP_TAPCELL_ROW_24_114
*669 TAP_TAPCELL_ROW_24_115
*670 TAP_TAPCELL_ROW_25_116
*671 TAP_TAPCELL_ROW_25_117
*672 TAP_TAPCELL_ROW_26_118
*673 TAP_TAPCELL_ROW_26_119
*674 TAP_TAPCELL_ROW_27_120
*675 TAP_TAPCELL_ROW_27_121
*676 TAP_TAPCELL_ROW_28_122
*677 TAP_TAPCELL_ROW_28_123
*678 TAP_TAPCELL_ROW_29_124
*679 TAP_TAPCELL_ROW_29_125
*680 TAP_TAPCELL_ROW_2_70
*681 TAP_TAPCELL_ROW_2_71
*682 TAP_TAPCELL_ROW_30_126
*683 TAP_TAPCELL_ROW_30_127
*684 TAP_TAPCELL_ROW_31_128
*685 TAP_TAPCELL_ROW_31_129
*686 TAP_TAPCELL_ROW_31_130
*687 TAP_TAPCELL_ROW_31_131
*688 TAP_TAPCELL_ROW_3_72
*689 TAP_TAPCELL_ROW_3_73
*690 TAP_TAPCELL_ROW_4_74
*691 TAP_TAPCELL_ROW_4_75
*692 TAP_TAPCELL_ROW_5_76
*693 TAP_TAPCELL_ROW_5_77
*694 TAP_TAPCELL_ROW_6_78
*695 TAP_TAPCELL_ROW_6_79
*696 TAP_TAPCELL_ROW_7_80
*697 TAP_TAPCELL_ROW_7_81
*698 TAP_TAPCELL_ROW_8_82
*699 TAP_TAPCELL_ROW_8_83
*700 TAP_TAPCELL_ROW_9_84
*701 TAP_TAPCELL_ROW_9_85
*702 _164_
*703 _165_
*704 _166_
*705 _167_
*706 _168_
*707 _169_
*708 _170_
*709 _171_
*710 _172_
*711 _173_
*712 _174_
*713 _175_
*714 _176_
*715 _177_
*716 _178_
*717 _179_
*718 _180_
*719 _181_
*720 _182_
*721 _183_
*722 _184_
*723 _185_
*724 _186_
*725 _187_
*726 _188_
*727 _189_
*728 _190_
*729 _191_
*730 _192_
*731 _193_
*732 _194_
*733 _195_
*734 _196_
*735 _197_
*736 _198_
*737 _199_
*738 _200_
*739 _201_
*740 _202_
*741 _203_
*742 _204_
*743 _205_
*744 _206_
*745 _207_
*746 _208_
*747 _209_
*748 _210_
*749 _211_
*750 _212_
*751 _213_
*752 _214_
*753 _215_
*754 _216_
*755 _217_
*756 _218_
*757 _219_
*758 _220_
*759 _221_
*760 _222_
*761 _223_
*762 _224_
*763 _225_
*764 _226_
*765 _227_
*766 _228_
*767 _229_
*768 _230_
*769 _231_
*770 _232_
*771 _233_
*772 _234_
*773 _235_
*774 _236_
*775 _237_
*776 _238_
*777 _239_
*778 _240_
*779 _241_
*780 _242_
*781 _243_
*782 _244_
*783 _245_
*784 _246_
*785 _247_
*786 _248_
*787 _249_
*788 _250_
*789 _251_
*790 _252_
*791 _253_
*792 _254_
*793 _255_
*794 _256_
*795 _257_
*796 _258_
*797 _259_
*798 _260_
*799 _261_
*800 _262_
*801 _263_
*802 _264_
*803 _265_
*804 _266_
*805 _267_
*806 _268_
*807 _269_
*808 _270_
*809 _271_
*810 _272_
*811 _273_
*812 _274_
*813 _275_
*814 _276_
*815 _277_
*816 _278_
*817 _279_
*818 _280_
*819 _281_
*820 _282_
*821 _283_
*822 _284_
*823 _285_
*824 _286_
*825 _287_
*826 _288_
*827 _289_
*828 _290_
*829 _291_
*830 _292_
*831 _293_
*832 _294_
*833 _295_
*834 _296_
*835 _297_
*836 _298_
*837 _299_
*838 _300_
*839 _301_
*840 _302_
*841 _303_
*842 _304_
*843 _305_
*844 _306_
*845 _307_
*846 _308_
*847 _309_
*848 _310_
*849 _311_
*850 _312_
*851 _313_
*852 _314_
*853 _315_
*854 _316_
*855 _317_
*856 _318_
*857 _319_
*858 _320_
*859 _321_
*860 _322_
*861 _323_
*862 _324_
*863 _325_
*864 _326_
*865 _327_
*866 _328_
*867 _329_
*868 _330_
*869 _331_
*870 _332_
*871 _333_
*872 _334_
*873 _335_
*874 _336_
*875 _337_
*876 _338_
*877 _339_
*878 _340_
*879 _341_
*880 _342_
*881 _343_
*882 _344_
*883 _345_
*884 _346_
*885 _347_
*886 _348_
*887 _349_
*888 _350_
*889 _351_
*890 _352_
*891 _353_
*892 _354_
*893 _355_
*894 _356_
*895 _357_
*896 clkbuf_0_clk
*897 clkbuf_2_0__f_clk
*898 clkbuf_2_1__f_clk
*899 clkbuf_2_2__f_clk
*900 clkbuf_2_3__f_clk
*901 clkload0
*902 clkload1
*903 clkload2
*904 output1
*905 output2
*906 output3

*PORTS
clk I
count[0] O
count[1] O
count[2] O
reset I

*D_NET *3 0.00748048
*CONN
*P clk I
*I *896:A I *D sky130_fd_sc_hd__clkbuf_16
*CAP
1 clk 0.00244439
2 *896:A 0
3 *3:15 0.00244439
4 *3:15 *894:RESET_B 0.000589841
5 *3:15 *895:RESET_B 2.26406e-05
6 *3:15 *16:30 0.000686134
7 *3:15 *96:16 0.00105795
8 *3:15 *186:22 0
9 *3:15 *188:44 0.000131124
10 *3:15 *195:41 3.46308e-05
11 *3:15 *197:53 2.26406e-05
12 *3:15 *205:61 4.67233e-05
*RES
1 clk *3:15 29.2981 
2 *3:15 *896:A 23 
*END

*D_NET *4 0.000936582
*CONN
*P count[0] O
*I *904:X O *D sky130_fd_sc_hd__buf_1
*CAP
1 count[0] 0.00043724
2 *904:X 0.00043724
3 count[0] *177:88 6.21013e-05
*RES
1 *904:X count[0] 48.4875 
*END

*D_NET *5 0.000964957
*CONN
*P count[1] O
*I *905:X O *D sky130_fd_sc_hd__buf_1
*CAP
1 count[1] 0.000187564
2 *905:X 0.00022241
3 *5:10 0.000409974
4 count[1] *206:18 1.48174e-05
5 *5:10 *8:10 0.000130191
*RES
1 *905:X *5:10 42.2568 
2 *5:10 count[1] 8.32853 
*END

*D_NET *6 0.00104074
*CONN
*P count[2] O
*I *906:X O *D sky130_fd_sc_hd__buf_1
*CAP
1 count[2] 0.000449896
2 *906:X 0.000449896
3 count[2] *22:28 0
4 count[2] *146:12 9.04345e-05
5 count[2] *195:66 5.0518e-05
*RES
1 *906:X count[2] 48.4875 
*END

*D_NET *7 0.0173017
*CONN
*P reset I
*I *844:A I *D sky130_fd_sc_hd__buf_4
*I *833:A I *D sky130_fd_sc_hd__buf_4
*I *855:A I *D sky130_fd_sc_hd__buf_4
*CAP
1 reset 0.0012532
2 *844:A 0
3 *833:A 8.12197e-05
4 *855:A 0.000180451
5 *7:44 0.00248789
6 *7:19 0.00353664
7 *7:7 0.00220272
8 *833:A *95:22 0.000143873
9 *833:A *166:69 0.000143873
10 *855:A *838:A 7.73471e-05
11 *855:A *153:36 2.06822e-05
12 *7:7 *884:RESET_B 0
13 *7:7 *68:26 0
14 *7:7 *90:132 5.87609e-05
15 *7:7 *90:138 6.15779e-05
16 *7:7 *129:32 0
17 *7:7 *167:18 0.000252842
18 *7:19 *764:B 0.000565524
19 *7:19 *838:A 5.12055e-06
20 *7:19 *54:10 1.53073e-05
21 *7:19 *68:26 0
22 *7:19 *84:131 9.41704e-05
23 *7:19 *153:36 0.000358105
24 *7:19 *167:18 0.000251703
25 *7:19 *185:59 0.00123369
26 *7:44 *890:RESET_B 4.67233e-05
27 *7:44 *16:30 0.00101379
28 *7:44 *19:24 2.32718e-05
29 *7:44 *42:24 0
30 *7:44 *65:24 0.0028389
31 *7:44 *177:37 1.93512e-05
32 *7:44 *179:68 9.58972e-05
33 *7:44 *180:108 0.000116559
34 *7:44 *191:35 2.86543e-06
35 *7:44 *191:102 0.000119627
*RES
1 reset *7:7 23.4279 
2 *7:7 *7:19 37.91 
3 *7:19 *855:A 26.0243 
4 *7:19 *7:44 48.1776 
5 *7:44 *833:A 48.0818 
6 *7:7 *844:A 38 
*END

*D_NET *8 0.0178279
*CONN
*I *869:D I *D sky130_fd_sc_hd__dfrtp_4
*I *814:X O *D sky130_fd_sc_hd__buf_1
*CAP
1 *869:D 0.000476691
2 *814:X 0.000975967
3 *8:20 0.00167465
4 *8:10 0.00260421
5 *8:8 0.00140625
6 *8:6 0.000975967
7 *869:D *869:CLK 0.000139723
8 *869:D *118:16 0.000977801
9 *8:6 *780:A1 0.000137651
10 *8:6 *854:A 2.93335e-05
11 *8:6 *884:D 0
12 *8:6 *54:10 1.14876e-05
13 *8:6 *116:18 0.000503783
14 *8:6 *162:138 6.72722e-05
15 *8:10 *795:C 0
16 *8:10 *14:22 0
17 *8:10 *14:42 0.00194213
18 *8:10 *15:24 0.000370035
19 *8:10 *27:18 0
20 *8:10 *47:18 0.00320818
21 *8:10 *88:18 0
22 *8:20 *878:RESET_B 0.000912218
23 *8:20 *14:22 0
24 *8:20 *47:18 2.24985e-05
25 *8:20 *67:26 0
26 *8:20 *70:14 0.000137651
27 *8:20 *73:38 0.000127754
28 *8:20 *118:16 0.000990025
29 *8:20 *195:66 0
30 *8:20 *206:8 6.47129e-06
31 *5:10 *8:10 0.000130191
*RES
1 *814:X *8:6 36.9614 
2 *8:6 *8:8 15 
3 *8:8 *8:10 50.8536 
4 *8:10 *8:20 43.3786 
5 *8:20 *869:D 34.1029 
*END

*D_NET *9 0.00507646
*CONN
*I *879:D I *D sky130_fd_sc_hd__dfrtp_2
*I *750:X O *D sky130_fd_sc_hd__clkbuf_1
*CAP
1 *879:D 0
2 *750:X 0
3 *9:14 0.00113666
4 *9:6 0.00113666
5 *9:14 *11:40 0.00122695
6 *9:14 *46:24 4.35681e-06
7 *9:14 *114:30 3.40882e-05
8 *9:14 *121:14 0.000539994
9 *9:14 *161:12 0.00034022
10 *9:14 *161:20 0.000194356
11 *9:14 *161:70 0.000180091
12 *9:14 *173:65 0.000242395
13 *9:14 *177:14 0
14 *9:14 *181:10 0
15 *9:14 *183:14 4.06849e-05
*RES
1 *750:X *9:6 38 
2 *9:6 *9:14 46.6721 
3 *9:14 *879:D 23 
*END

*D_NET *10 0.00422217
*CONN
*I *880:D I *D sky130_fd_sc_hd__dfrtp_1
*I *755:X O *D sky130_fd_sc_hd__clkbuf_1
*CAP
1 *880:D 0
2 *755:X 0.000754439
3 *10:8 0.000754439
4 *10:8 *23:8 4.21158e-05
5 *10:8 *108:41 0.000981358
6 *10:8 *117:18 0.000269144
7 *10:8 *161:8 6.20279e-05
8 *10:8 *173:114 0.000261458
9 *10:8 *182:6 0.000101436
10 *10:8 *182:41 0.000995753
*RES
1 *755:X *10:8 43.1757 
2 *10:8 *880:D 23 
*END

*D_NET *11 0.0152493
*CONN
*I *881:D I *D sky130_fd_sc_hd__dfrtp_4
*I *759:X O *D sky130_fd_sc_hd__buf_1
*CAP
1 *881:D 0
2 *759:X 9.51735e-05
3 *11:40 0.000761535
4 *11:34 0.00390402
5 *11:12 0.00323765
6 *11:12 *68:53 0.000121918
7 *11:12 *144:16 0.000119147
8 *11:12 *184:14 4.51815e-05
9 *11:12 *198:31 4.8098e-05
10 *11:34 *881:RESET_B 0
11 *11:34 *22:24 0.000242319
12 *11:34 *42:12 8.66403e-05
13 *11:34 *61:16 0
14 *11:34 *73:30 2.88596e-05
15 *11:34 *76:26 0.000534391
16 *11:34 *83:80 0.000159523
17 *11:34 *83:97 0.000573563
18 *11:34 *84:92 0.000102339
19 *11:34 *88:18 0.000165116
20 *11:34 *88:30 2.07228e-05
21 *11:34 *100:14 0.000165149
22 *11:34 *126:24 5.07489e-05
23 *11:34 *155:14 1.52164e-05
24 *11:34 *164:26 8.9073e-05
25 *11:34 *171:16 0.000127064
26 *11:34 *172:16 0.000586802
27 *11:34 *172:56 0.00065083
28 *11:34 *174:95 6.56182e-06
29 *11:34 *177:37 3.37154e-05
30 *11:34 *184:37 5.54857e-05
31 *11:34 *193:36 5.94709e-05
32 *11:34 *199:53 0.000269753
33 *11:34 *200:18 2.18048e-05
34 *11:40 *869:RESET_B 8.23659e-05
35 *11:40 *49:12 0
36 *11:40 *100:14 7.78036e-05
37 *11:40 *109:20 1.71303e-05
38 *11:40 *121:14 8.72054e-06
39 *11:40 *155:14 0.000179214
40 *11:40 *158:22 0.000135287
41 *11:40 *161:20 0.000695963
42 *11:40 *163:78 0.000447979
43 *11:40 *181:50 0
44 *9:14 *11:40 0.00122695
*RES
1 *759:X *11:12 47.8286 
2 *11:12 *11:34 35.367 
3 *11:34 *11:40 37.6925 
4 *11:40 *881:D 23 
*END

*D_NET *12 0.00456933
*CONN
*I *882:D I *D sky130_fd_sc_hd__dfrtp_1
*I *763:X O *D sky130_fd_sc_hd__clkbuf_1
*CAP
1 *882:D 0
2 *763:X 0.000123659
3 *12:14 0.00118249
4 *12:8 0.00130615
5 *12:14 *882:CLK 7.59794e-05
6 *12:14 *19:8 0.000183229
7 *12:14 *21:8 0.000193024
8 *12:14 *122:155 0.000135037
9 *12:14 *125:6 0.000135037
10 *12:14 *125:14 0.000221992
11 *12:14 *125:25 0
12 *12:14 *126:30 0.000780431
13 *12:14 *133:26 1.59312e-05
14 *12:14 *150:18 3.72639e-05
15 *12:14 *188:114 0
16 *12:14 *190:125 4.6187e-05
17 *12:14 *201:66 0.000132918
*RES
1 *763:X *12:8 39.5743 
2 *12:8 *12:14 40.7064 
3 *12:14 *882:D 23 
*END

*D_NET *13 0.0090545
*CONN
*I *883:D I *D sky130_fd_sc_hd__dfrtp_1
*I *765:X O *D sky130_fd_sc_hd__o211a_1
*CAP
1 *883:D 1.80505e-05
2 *765:X 0.000196125
3 *13:10 0.00171148
4 *13:8 0.00188955
5 *883:D *202:37 5.50049e-05
6 *883:D *206:72 2.93747e-05
7 *13:8 *119:34 0.000219266
8 *13:10 *796:B1 2.11066e-05
9 *13:10 *42:24 0
10 *13:10 *56:26 2.33476e-05
11 *13:10 *65:10 3.23515e-05
12 *13:10 *108:27 0.00116232
13 *13:10 *108:73 0.00113283
14 *13:10 *128:37 1.89587e-05
15 *13:10 *153:36 0.000473152
16 *13:10 *154:12 0.000147258
17 *13:10 *184:45 3.79305e-05
18 *13:10 *185:32 8.02685e-05
19 *13:10 *186:14 5.41995e-05
20 *13:10 *186:35 0.000974023
21 *13:10 *193:20 1.23172e-05
22 *13:10 *193:26 0.000623487
23 *13:10 *193:36 0.000142102
*RES
1 *765:X *13:8 40.5271 
2 *13:8 *13:10 42.05 
3 *13:10 *883:D 38.6214 
*END

*D_NET *14 0.0163747
*CONN
*I *884:D I *D sky130_fd_sc_hd__dfrtp_1
*I *770:X O *D sky130_fd_sc_hd__buf_1
*CAP
1 *884:D 0.000858043
2 *770:X 0.000866123
3 *14:42 0.0019058
4 *14:38 0.0020681
5 *14:22 0.00166532
6 *14:8 0.0015111
7 *884:D *785:B 3.98818e-05
8 *884:D *830:A1 0.000226306
9 *884:D *884:CLK 0.00023121
10 *884:D *27:10 0.000135037
11 *884:D *27:16 0.00128036
12 *884:D *70:62 0.000275472
13 *884:D *71:8 1.5769e-05
14 *884:D *126:30 3.53115e-05
15 *884:D *176:92 0.000104359
16 *884:D *188:122 0.00027922
17 *884:D *201:31 5.50049e-05
18 *14:8 *751:B 4.00259e-06
19 *14:8 *101:8 0.000258511
20 *14:8 *109:12 7.15126e-05
21 *14:22 *795:C 9.64682e-05
22 *14:22 *88:18 0.000272871
23 *14:22 *122:26 1.93974e-05
24 *14:22 *195:66 0.00101572
25 *14:38 *45:22 0.000140686
26 *14:38 *58:10 0.000622679
27 *14:38 *88:18 0.000195314
28 *14:38 *122:26 0.000167212
29 *14:38 *183:123 0
30 *14:38 *201:90 0
31 *14:38 *206:18 1.57282e-05
32 *14:42 *58:10 0
33 *14:42 *88:18 0
34 *14:42 *177:88 0
35 *8:6 *884:D 0
36 *8:10 *14:22 0
37 *8:10 *14:42 0.00194213
38 *8:20 *14:22 0
*RES
1 *770:X *14:8 36.5057 
2 *14:8 *14:22 45.7876 
3 *14:22 *14:38 46.4224 
4 *14:38 *14:42 42.4361 
5 *14:42 *884:D 47.4843 
*END

*D_NET *15 0.0225768
*CONN
*I *885:D I *D sky130_fd_sc_hd__dfrtp_1
*I *774:X O *D sky130_fd_sc_hd__buf_1
*CAP
1 *885:D 0.000183669
2 *774:X 0.000567835
3 *15:24 0.00643279
4 *15:12 0.00681696
5 *885:D *885:CLK 0.000125878
6 *15:12 *45:28 0
7 *15:12 *67:26 2.39058e-05
8 *15:12 *70:20 6.87115e-06
9 *15:12 *146:12 0
10 *15:12 *195:66 2.28656e-05
11 *15:24 *883:RESET_B 5.02657e-05
12 *15:24 *884:RESET_B 0.000229827
13 *15:24 *45:28 0.00021176
14 *15:24 *46:24 0.000359577
15 *15:24 *47:18 0.000354389
16 *15:24 *67:26 0.00320094
17 *15:24 *133:26 0.000225645
18 *15:24 *146:28 0.000552942
19 *15:24 *175:64 4.75766e-05
20 *15:24 *177:88 7.8489e-05
21 *15:24 *177:109 0.00271455
22 *8:10 *15:24 0.000370035
*RES
1 *774:X *15:12 47.6308 
2 *15:12 *15:24 42.6175 
3 *15:24 *885:D 40.5945 
*END

*D_NET *16 0.0204256
*CONN
*I *886:D I *D sky130_fd_sc_hd__dfrtp_4
*I *778:X O *D sky130_fd_sc_hd__buf_1
*CAP
1 *886:D 0
2 *778:X 0.000384225
3 *16:36 0.000375981
4 *16:30 0.0060547
5 *16:14 0.00606295
6 *16:14 *113:30 1.24362e-05
7 *16:14 *114:30 2.23467e-05
8 *16:14 *177:14 2.05503e-05
9 *16:30 *894:RESET_B 0.000223689
10 *16:30 *17:28 0.0010999
11 *16:30 *42:24 0.000323185
12 *16:30 *84:69 0.00011563
13 *16:30 *95:22 0.00010083
14 *16:30 *95:34 0.000232995
15 *16:30 *96:16 0.000139686
16 *16:30 *110:34 0
17 *16:30 *134:50 0.000110158
18 *16:30 *136:24 0.000333827
19 *16:30 *139:12 0.000121281
20 *16:30 *166:69 0.000160188
21 *16:30 *169:16 0.000317206
22 *16:30 *169:28 0
23 *16:30 *179:68 0.000610311
24 *16:30 *180:79 0.000229377
25 *16:30 *184:37 0.000687861
26 *16:30 *193:77 0.000850381
27 *16:36 *93:8 3.84949e-05
28 *16:36 *128:72 3.71726e-05
29 *16:36 *164:122 6.03228e-05
30 *3:15 *16:30 0.000686134
31 *7:44 *16:30 0.00101379
*RES
1 *778:X *16:14 47.7284 
2 *16:14 *16:30 48.5144 
3 *16:30 *16:36 29.6596 
4 *16:36 *886:D 23 
*END

*D_NET *17 0.0100989
*CONN
*I *887:D I *D sky130_fd_sc_hd__dfrtp_1
*I *782:X O *D sky130_fd_sc_hd__clkbuf_1
*CAP
1 *887:D 0
2 *782:X 0.000325037
3 *17:28 0.00211804
4 *17:8 0.00244308
5 *17:8 *865:A 1.92755e-05
6 *17:8 *91:12 0.000603048
7 *17:8 *124:22 3.20914e-05
8 *17:8 *163:97 0.000106454
9 *17:8 *182:41 6.15755e-05
10 *17:8 *188:56 6.01285e-05
11 *17:28 *792:B 7.17297e-05
12 *17:28 *19:24 6.0387e-05
13 *17:28 *42:24 0.00173982
14 *17:28 *52:16 0.000321271
15 *17:28 *84:131 4.49124e-05
16 *17:28 *88:18 2.3515e-05
17 *17:28 *136:24 0.000217839
18 *17:28 *154:12 0.000143305
19 *17:28 *169:16 7.11252e-05
20 *17:28 *169:28 2.57218e-05
21 *17:28 *175:27 0.000135007
22 *17:28 *175:40 9.28078e-06
23 *17:28 *178:66 1.29843e-05
24 *17:28 *179:68 4.07381e-05
25 *17:28 *184:37 0.000276835
26 *17:28 *200:18 3.57521e-05
27 *16:30 *17:28 0.0010999
*RES
1 *782:X *17:8 46.4204 
2 *17:8 *17:28 45.9283 
3 *17:28 *887:D 38 
*END

*D_NET *18 0.00455493
*CONN
*I *888:D I *D sky130_fd_sc_hd__dfrtp_2
*I *786:X O *D sky130_fd_sc_hd__clkbuf_1
*CAP
1 *888:D 0
2 *786:X 0.000239317
3 *18:14 0.000985713
4 *18:10 0.00122503
5 *18:10 *816:A 5.3304e-05
6 *18:10 *43:8 1.47394e-05
7 *18:10 *100:14 0.000159859
8 *18:10 *171:16 0.00016206
9 *18:10 *180:46 4.27925e-05
10 *18:14 *207:DIODE 7.49746e-05
11 *18:14 *702:A 0.000179473
12 *18:14 *702:C 0.0001166
13 *18:14 *702:D 1.21972e-05
14 *18:14 *735:A_N 9.41704e-05
15 *18:14 *735:B 0.000188759
16 *18:14 *40:20 0.000152919
17 *18:14 *89:10 0.000638972
18 *18:14 *134:32 6.70361e-05
19 *18:14 *175:12 5.56279e-05
20 *18:14 *186:35 3.28713e-05
21 *18:14 *199:41 5.8514e-05
*RES
1 *786:X *18:10 42.3086 
2 *18:10 *18:14 33.7257 
3 *18:14 *888:D 23 
*END

*D_NET *19 0.0210445
*CONN
*I *870:D I *D sky130_fd_sc_hd__dfrtp_4
*I *818:X O *D sky130_fd_sc_hd__buf_1
*CAP
1 *870:D 9.79767e-05
2 *818:X 0.000297268
3 *19:24 0.00469755
4 *19:14 0.00550182
5 *19:8 0.00119952
6 *870:D *870:CLK 2.64616e-05
7 *870:D *40:32 5.3304e-05
8 *870:D *65:30 0.00015019
9 *870:D *173:114 0.000145674
10 *19:8 *126:24 0.000387825
11 *19:8 *126:30 5.98985e-05
12 *19:8 *150:18 0.000698852
13 *19:14 *734:A 2.43944e-05
14 *19:14 *71:14 8.55621e-05
15 *19:14 *88:8 7.84859e-05
16 *19:14 *165:117 9.41704e-05
17 *19:24 *22:24 0.000353147
18 *19:24 *27:18 0.0024705
19 *19:24 *45:28 0.00193682
20 *19:24 *47:18 0.000276438
21 *19:24 *67:26 0.000242841
22 *19:24 *84:69 3.65563e-05
23 *19:24 *88:18 0
24 *19:24 *116:53 1.03149e-05
25 *19:24 *133:26 0.00012087
26 *19:24 *134:32 7.60428e-05
27 *19:24 *172:47 0.000203833
28 *19:24 *183:50 8.85203e-05
29 *19:24 *191:35 6.92544e-05
30 *19:24 *196:80 3.83658e-05
31 *19:24 *199:41 0.000816391
32 *19:24 *200:18 0
33 *19:24 *205:39 0.000438756
34 *7:44 *19:24 2.32718e-05
35 *12:14 *19:8 0.000183229
36 *17:28 *19:24 6.0387e-05
*RES
1 *818:X *19:8 47.6529 
2 *19:8 *19:14 41.5793 
3 *19:14 *19:24 48.7151 
4 *19:24 *870:D 48.7032 
*END

*D_NET *20 0.00913739
*CONN
*I *889:D I *D sky130_fd_sc_hd__dfrtp_1
*I *790:X O *D sky130_fd_sc_hd__clkbuf_1
*CAP
1 *889:D 0.000197275
2 *790:X 0.000799114
3 *20:16 0.00106583
4 *20:10 0.00166767
5 *889:D *889:CLK 7.14493e-05
6 *889:D *24:6 0.00010178
7 *889:D *167:37 0.00022688
8 *20:10 *105:81 2.53925e-05
9 *20:10 *105:91 0.00172723
10 *20:10 *107:8 0.00085091
11 *20:10 *198:8 5.3304e-05
12 *20:16 *759:A 1.92729e-05
13 *20:16 *895:CLK 7.01168e-05
14 *20:16 *895:RESET_B 0.000171473
15 *20:16 *900:A 3.39192e-05
16 *20:16 *81:10 0.000132311
17 *20:16 *102:50 0.00014486
18 *20:16 *102:54 0.000337864