*SPEF "ieee 1481-1999"
*DESIGN "dff_behavioral"
*DATE "17:56:46 Saturday April 12, 2025"
*VENDOR "The OpenROAD Project"
*PROGRAM "OpenROAD"
*VERSION "b16bda7e82721d10566ff7e2b68f1ff0be9f9e38"
*DESIGN_FLOW "NAME_SCOPE LOCAL" "PIN_CAP NONE"
*DIVIDER /
*DELIMITER :
*BUS_DELIMITER []
*T_UNIT 1 NS
*C_UNIT 1 PF
*R_UNIT 1 OHM
*L_UNIT 1 HENRY

*NAME_MAP
*3 clear
*4 clk
*5 d
*6 q
*7 qbar
*8 _0_
*9 _1_
*10 _2_
*11 _3_
*12 clknet_0_clk
*13 clknet_1_0__leaf_clk
*14 clknet_1_1__leaf_clk
*15 net1
*16 net2
*17 net3
*18 net4
*19 FILLER_0_0_15
*20 FILLER_0_0_27
*21 FILLER_0_0_29
*22 FILLER_0_0_3
*23 FILLER_0_0_41
*24 FILLER_0_0_47
*25 FILLER_0_10_15
*26 FILLER_0_10_27
*27 FILLER_0_10_29
*28 FILLER_0_10_3
*29 FILLER_0_10_41
*30 FILLER_0_10_47
*31 FILLER_0_11_15
*32 FILLER_0_11_27
*33 FILLER_0_11_3
*34 FILLER_0_11_39
*35 FILLER_0_11_47
*36 FILLER_0_12_15
*37 FILLER_0_12_27
*38 FILLER_0_12_3
*39 FILLER_0_12_32
*40 FILLER_0_12_44
*41 FILLER_0_1_15
*42 FILLER_0_1_27
*43 FILLER_0_1_3
*44 FILLER_0_1_39
*45 FILLER_0_2_15
*46 FILLER_0_2_27
*47 FILLER_0_2_29
*48 FILLER_0_2_3
*49 FILLER_0_2_41
*50 FILLER_0_2_47
*51 FILLER_0_3_19
*52 FILLER_0_3_23
*53 FILLER_0_3_44
*54 FILLER_0_4_23
*55 FILLER_0_4_27
*56 FILLER_0_4_45
*57 FILLER_0_5_15
*58 FILLER_0_5_22
*59 FILLER_0_5_3
*60 FILLER_0_6_18
*61 FILLER_0_6_26
*62 FILLER_0_6_29
*63 FILLER_0_6_41
*64 FILLER_0_6_47
*65 FILLER_0_6_6
*66 FILLER_0_7_15
*67 FILLER_0_7_27
*68 FILLER_0_7_3
*69 FILLER_0_7_39
*70 FILLER_0_7_47
*71 FILLER_0_8_15
*72 FILLER_0_8_27
*73 FILLER_0_8_3
*74 FILLER_0_8_35
*75 FILLER_0_8_47
*76 FILLER_0_9_15
*77 FILLER_0_9_27
*78 FILLER_0_9_3
*79 FILLER_0_9_39
*80 FILLER_0_9_43
*81 FILLER_0_9_47
*82 PHY_EDGE_ROW_0_Left_13
*83 PHY_EDGE_ROW_0_Right_0
*84 PHY_EDGE_ROW_10_Left_23
*85 PHY_EDGE_ROW_10_Right_10
*86 PHY_EDGE_ROW_11_Left_24
*87 PHY_EDGE_ROW_11_Right_11
*88 PHY_EDGE_ROW_12_Left_25
*89 PHY_EDGE_ROW_12_Right_12
*90 PHY_EDGE_ROW_1_Left_14
*91 PHY_EDGE_ROW_1_Right_1
*92 PHY_EDGE_ROW_2_Left_15
*93 PHY_EDGE_ROW_2_Right_2
*94 PHY_EDGE_ROW_3_Left_16
*95 PHY_EDGE_ROW_3_Right_3
*96 PHY_EDGE_ROW_4_Left_17
*97 PHY_EDGE_ROW_4_Right_4
*98 PHY_EDGE_ROW_5_Left_18
*99 PHY_EDGE_ROW_5_Right_5
*100 PHY_EDGE_ROW_6_Left_19
*101 PHY_EDGE_ROW_6_Right_6
*102 PHY_EDGE_ROW_7_Left_20
*103 PHY_EDGE_ROW_7_Right_7
*104 PHY_EDGE_ROW_8_Left_21
*105 PHY_EDGE_ROW_8_Right_8
*106 PHY_EDGE_ROW_9_Left_22
*107 PHY_EDGE_ROW_9_Right_9
*108 TAP_TAPCELL_ROW_0_26
*109 TAP_TAPCELL_ROW_10_31
*110 TAP_TAPCELL_ROW_12_32
*111 TAP_TAPCELL_ROW_2_27
*112 TAP_TAPCELL_ROW_4_28
*113 TAP_TAPCELL_ROW_6_29
*114 TAP_TAPCELL_ROW_8_30
*115 _4_
*116 _5_
*117 _6_
*118 _7_
*119 _8_
*120 _9_
*121 clkbuf_0_clk
*122 clkbuf_1_0__f_clk
*123 clkbuf_1_1__f_clk
*124 input1
*125 input2
*126 output3
*127 output4

*PORTS
clear I
clk I
d I
q O
qbar O

*D_NET *3 0.0010456
*CONN
*P clear I
*I *124:A I *D sky130_fd_sc_hd__clkbuf_1
*CAP
1 clear 0.000522801
2 *124:A 0
3 *3:15 0.000522801
4 *3:15 *18:10 0
*RES
1 clear *3:15 27.9464 
2 *3:15 *124:A 23 
*END

*D_NET *4 0.00188653
*CONN
*P clk I
*I *121:A I *D sky130_fd_sc_hd__clkbuf_16
*CAP
1 clk 0.000923506
2 *121:A 0
3 *4:9 0.000923506
4 *4:9 *9:16 2.93747e-05
5 *4:9 *12:14 1.01436e-05
6 *4:9 *13:10 0
7 *4:9 *18:10 0
*RES
1 clk *4:9 33.4771 
2 *4:9 *121:A 23 
*END

*D_NET *5 0.000538176
*CONN
*P d I
*I *125:A I *D sky130_fd_sc_hd__clkbuf_1
*CAP
1 d 0.000269088
2 *125:A 0.000269088
*RES
1 d *125:A 47.7832 
*END

*D_NET *6 0.000429979
*CONN
*P q O
*I *126:X O *D sky130_fd_sc_hd__buf_1
*CAP
1 q 0.00021499
2 *126:X 0.00021499
*RES
1 *126:X q 46.9931 
*END

*D_NET *7 0.00055579
*CONN
*P qbar O
*I *127:X O *D sky130_fd_sc_hd__buf_1
*CAP
1 qbar 0.000277895
2 *127:X 0.000277895
*RES
1 *127:X qbar 48.4016 
*END

*D_NET *8 0.000948488
*CONN
*I *120:D I *D sky130_fd_sc_hd__dfxtp_1
*I *118:X O *D sky130_fd_sc_hd__clkbuf_1
*CAP
1 *120:D 0.00025533
2 *118:X 0.000126199
3 *8:8 0.00038153
4 *120:D *122:A 0.000185428
5 *8:8 *123:A 0
*RES
1 *118:X *8:8 40.2579 
2 *8:8 *120:D 43.2821 
*END

*D_NET *9 0.003555
*CONN
*I *119:D I *D sky130_fd_sc_hd__dfxtp_1
*I *116:X O *D sky130_fd_sc_hd__clkbuf_1
*CAP
1 *119:D 0
2 *116:X 0
3 *9:16 0.00122629
4 *9:6 0.00122629
5 *9:16 *119:CLK 0.000101762
6 *9:16 *10:10 4.08641e-05
7 *9:16 *12:14 0.000505248
8 *9:16 *17:10 0
9 *9:16 *18:6 0.000425177
10 *9:16 *18:10 0
11 *4:9 *9:16 2.93747e-05
*RES
1 *116:X *9:6 38 
2 *9:6 *9:16 43.9379 
3 *9:16 *119:D 23 
*END

*D_NET *10 0.000886854
*CONN
*I *116:A I *D sky130_fd_sc_hd__clkbuf_1
*I *115:X O *D sky130_fd_sc_hd__or2b_1
*CAP
1 *116:A 0
2 *115:X 0.000422995
3 *10:10 0.000422995
4 *10:10 *18:10 0
5 *9:16 *10:10 4.08641e-05
*RES
1 *115:X *10:10 44.2143 
2 *10:10 *116:A 38 
*END

*D_NET *11 0.000931931
*CONN
*I *118:A I *D sky130_fd_sc_hd__clkbuf_1
*I *117:X O *D sky130_fd_sc_hd__and2b_1
*CAP
1 *118:A 6.80082e-05
2 *117:X 0.000397957
3 *11:8 0.000465965
*RES
1 *117:X *11:8 45.54 
2 *11:8 *118:A 39.0979 
*END

*D_NET *12 0.00233259
*CONN
*I *123:A I *D sky130_fd_sc_hd__clkbuf_16
*I *122:A I *D sky130_fd_sc_hd__clkbuf_16
*I *121:X O *D sky130_fd_sc_hd__clkbuf_16
*CAP
1 *123:A 0.000252147
2 *122:A 8.91408e-05
3 *121:X 0.000450408
4 *12:14 0.000791696
5 *123:A *14:10 4.83778e-05
6 *123:A *18:10 0
7 *12:14 *13:10 0
8 *12:14 *18:10 0
9 *120:D *122:A 0.000185428
10 *4:9 *12:14 1.01436e-05
11 *8:8 *123:A 0
12 *9:16 *12:14 0.000505248
*RES
1 *121:X *12:14 47.8393 
2 *12:14 *122:A 40.0507 
3 *12:14 *123:A 42.7643 
*END

*D_NET *13 0.0013431
*CONN
*I *119:CLK I *D sky130_fd_sc_hd__dfxtp_1
*I *122:X O *D sky130_fd_sc_hd__clkbuf_16
*CAP
1 *119:CLK 4.23354e-05
2 *122:X 0.000578334
3 *13:10 0.000620669
4 *4:9 *13:10 0
5 *9:16 *119:CLK 0.000101762
6 *12:14 *13:10 0
*RES
1 *122:X *13:10 45.7679 
2 *13:10 *119:CLK 39.0979 
*END

*D_NET *14 0.00123362
*CONN
*I *120:CLK I *D sky130_fd_sc_hd__dfxtp_1
*I *123:X O *D sky130_fd_sc_hd__clkbuf_16
*CAP
1 *120:CLK 0
2 *123:X 0.000592619
3 *14:10 0.000592619
4 *14:10 *18:10 0
5 *123:A *14:10 4.83778e-05
*RES
1 *123:X *14:10 46.2443 
2 *14:10 *120:CLK 38 
*END

*D_NET *15 0.00162389
*CONN
*I *115:A I *D sky130_fd_sc_hd__or2b_1
*I *117:A_N I *D sky130_fd_sc_hd__and2b_1
*I *124:X O *D sky130_fd_sc_hd__clkbuf_1
*CAP
1 *115:A 0
2 *117:A_N 0.000213946
3 *124:X 0.000381828
4 *15:10 0.000213946
5 *15:8 0.000381828
6 *117:A_N *115:B_N 5.83407e-05
7 *117:A_N *117:B 0
8 *15:8 *18:10 0.000374
*RES
1 *124:X *15:8 47.6529 
2 *15:8 *15:10 15 
3 *15:10 *117:A_N 26.3764 
4 *15:10 *115:A 23 
*END

*D_NET *16 0.00197999
*CONN
*I *117:B I *D sky130_fd_sc_hd__and2b_1
*I *115:B_N I *D sky130_fd_sc_hd__or2b_1
*I *125:X O *D sky130_fd_sc_hd__clkbuf_1
*CAP
1 *117:B 2.34823e-05
2 *115:B_N 0.000183551
3 *125:X 0.000269821
4 *16:12 0.000691002
5 *16:8 0.000753789
6 *117:A_N *115:B_N 5.83407e-05
7 *117:A_N *117:B 0
*RES
1 *125:X *16:8 43.075 
2 *16:8 *16:12 23.2443 
3 *16:12 *115:B_N 26.9771 
4 *16:12 *117:B 23.4971 
*END

*D_NET *17 0.000915223
*CONN
*I *126:A I *D sky130_fd_sc_hd__buf_1
*I *120:Q O *D sky130_fd_sc_hd__dfxtp_1
*CAP
1 *126:A 0
2 *120:Q 0.000457612
3 *17:10 0.000457612
4 *9:16 *17:10 0
*RES
1 *120:Q *17:10 46.1614 
2 *17:10 *126:A 38 
*END

*D_NET *18 0.00600507
*CONN
*I *127:A I *D sky130_fd_sc_hd__buf_1
*I *119:Q O *D sky130_fd_sc_hd__dfxtp_1
*CAP
1 *127:A 0.000324535
2 *119:Q 0.00099636
3 *18:10 0.00160659
4 *18:6 0.00227841
5 *123:A *18:10 0
6 *3:15 *18:10 0
7 *4:9 *18:10 0
8 *9:16 *18:6 0.000425177
9 *9:16 *18:10 0
10 *10:10 *18:10 0
11 *12:14 *18:10 0
12 *14:10 *18:10 0
13 *15:8 *18:10 0.000374
*RES
1 *119:Q *18:6 37.4379 
2 *18:6 *18:10 41.2036 
3 *18:10 *127:A 43.8621 
*END
