*SPEF "ieee 1481-1999"
*DESIGN "inverter"
*DATE "17:25:07 Saturday April 12, 2025"
*VENDOR "The OpenROAD Project"
*PROGRAM "OpenROAD"
*VERSION "b16bda7e82721d10566ff7e2b68f1ff0be9f9e38"
*DESIGN_FLOW "NAME_SCOPE LOCAL" "PIN_CAP NONE"
*DIVIDER /
*DELIMITER :
*BUS_DELIMITER []
*T_UNIT 1 NS
*C_UNIT 1 PF
*R_UNIT 1 OHM
*L_UNIT 1 HENRY

*NAME_MAP
*3 in
*4 out
*5 net1
*6 net2
*7 FILLER_0_0_15
*8 FILLER_0_0_27
*9 FILLER_0_0_29
*10 FILLER_0_0_3
*11 FILLER_0_0_41
*12 FILLER_0_0_47
*13 FILLER_0_10_15
*14 FILLER_0_10_27
*15 FILLER_0_10_29
*16 FILLER_0_10_3
*17 FILLER_0_10_41
*18 FILLER_0_10_47
*19 FILLER_0_11_15
*20 FILLER_0_11_27
*21 FILLER_0_11_3
*22 FILLER_0_11_39
*23 FILLER_0_11_47
*24 FILLER_0_12_15
*25 FILLER_0_12_27
*26 FILLER_0_12_29
*27 FILLER_0_12_3
*28 FILLER_0_12_41
*29 FILLER_0_12_47
*30 FILLER_0_1_15
*31 FILLER_0_1_27
*32 FILLER_0_1_3
*33 FILLER_0_1_39
*34 FILLER_0_1_47
*35 FILLER_0_2_15
*36 FILLER_0_2_27
*37 FILLER_0_2_29
*38 FILLER_0_2_3
*39 FILLER_0_2_41
*40 FILLER_0_2_47
*41 FILLER_0_3_15
*42 FILLER_0_3_27
*43 FILLER_0_3_3
*44 FILLER_0_3_39
*45 FILLER_0_3_47
*46 FILLER_0_4_15
*47 FILLER_0_4_27
*48 FILLER_0_4_29
*49 FILLER_0_4_3
*50 FILLER_0_4_41
*51 FILLER_0_4_47
*52 FILLER_0_5_15
*53 FILLER_0_5_27
*54 FILLER_0_5_3
*55 FILLER_0_5_39
*56 FILLER_0_5_47
*57 FILLER_0_6_18
*58 FILLER_0_6_26
*59 FILLER_0_6_29
*60 FILLER_0_6_41
*61 FILLER_0_6_6
*62 FILLER_0_7_15
*63 FILLER_0_7_27
*64 FILLER_0_7_3
*65 FILLER_0_7_39
*66 FILLER_0_7_47
*67 FILLER_0_8_15
*68 FILLER_0_8_27
*69 FILLER_0_8_29
*70 FILLER_0_8_3
*71 FILLER_0_8_37
*72 FILLER_0_8_43
*73 FILLER_0_8_47
*74 FILLER_0_9_15
*75 FILLER_0_9_27
*76 FILLER_0_9_3
*77 FILLER_0_9_39
*78 FILLER_0_9_47
*79 PHY_EDGE_ROW_0_Left_13
*80 PHY_EDGE_ROW_0_Right_0
*81 PHY_EDGE_ROW_10_Left_23
*82 PHY_EDGE_ROW_10_Right_10
*83 PHY_EDGE_ROW_11_Left_24
*84 PHY_EDGE_ROW_11_Right_11
*85 PHY_EDGE_ROW_12_Left_25
*86 PHY_EDGE_ROW_12_Right_12
*87 PHY_EDGE_ROW_1_Left_14
*88 PHY_EDGE_ROW_1_Right_1
*89 PHY_EDGE_ROW_2_Left_15
*90 PHY_EDGE_ROW_2_Right_2
*91 PHY_EDGE_ROW_3_Left_16
*92 PHY_EDGE_ROW_3_Right_3
*93 PHY_EDGE_ROW_4_Left_17
*94 PHY_EDGE_ROW_4_Right_4
*95 PHY_EDGE_ROW_5_Left_18
*96 PHY_EDGE_ROW_5_Right_5
*97 PHY_EDGE_ROW_6_Left_19
*98 PHY_EDGE_ROW_6_Right_6
*99 PHY_EDGE_ROW_7_Left_20
*100 PHY_EDGE_ROW_7_Right_7
*101 PHY_EDGE_ROW_8_Left_21
*102 PHY_EDGE_ROW_8_Right_8
*103 PHY_EDGE_ROW_9_Left_22
*104 PHY_EDGE_ROW_9_Right_9
*105 TAP_TAPCELL_ROW_0_26
*106 TAP_TAPCELL_ROW_10_31
*107 TAP_TAPCELL_ROW_12_32
*108 TAP_TAPCELL_ROW_2_27
*109 TAP_TAPCELL_ROW_4_28
*110 TAP_TAPCELL_ROW_6_29
*111 TAP_TAPCELL_ROW_8_30
*112 _0_
*113 input1
*114 output2

*PORTS
in I
out O

*D_NET *3 0.000506833
*CONN
*P in I
*I *113:A I *D sky130_fd_sc_hd__clkbuf_1
*CAP
1 in 0.000253417
2 *113:A 0.000253417
*RES
1 in *113:A 18.73 
*END

*D_NET *4 0.000453734
*CONN
*P out O
*I *114:X O *D sky130_fd_sc_hd__buf_2
*CAP
1 out 0.000226867
2 *114:X 0.000226867
*RES
1 *114:X out 18.1229 
*END

*D_NET *5 0.00222728
*CONN
*I *112:A I *D sky130_fd_sc_hd__inv_2
*I *113:X O *D sky130_fd_sc_hd__clkbuf_1
*CAP
1 *112:A 0.00111364
2 *113:X 0.00111364
*RES
1 *113:X *112:A 46.1714 
*END

*D_NET *6 0.000730116
*CONN
*I *114:A I *D sky130_fd_sc_hd__buf_2
*I *112:Y O *D sky130_fd_sc_hd__inv_2
*CAP
1 *114:A 0.000365058
2 *112:Y 0.000365058
*RES
1 *112:Y *114:A 33.3321 
*END
