*SPEF "ieee 1481-1999"
*DESIGN "complement"
*DATE "17:46:28 Sunday April 20, 2025"
*VENDOR "The OpenROAD Project"
*PROGRAM "OpenROAD"
*VERSION "b16bda7e82721d10566ff7e2b68f1ff0be9f9e38"
*DESIGN_FLOW "NAME_SCOPE LOCAL" "PIN_CAP NONE"
*DIVIDER /
*DELIMITER :
*BUS_DELIMITER []
*T_UNIT 1 NS
*C_UNIT 1 PF
*R_UNIT 1 OHM
*L_UNIT 1 HENRY

*NAME_MAP
*3 x[0]
*4 x[1]
*5 x[2]
*6 x[3]
*7 x[4]
*8 x[5]
*9 x[6]
*10 x[7]
*11 y[0]
*12 y[1]
*13 y[2]
*14 y[3]
*15 y[4]
*16 y[5]
*17 y[6]
*18 y[7]
*19 _00_
*20 _01_
*21 _02_
*22 _03_
*23 _04_
*24 _05_
*25 _06_
*26 _07_
*27 _08_
*28 _09_
*29 net1
*30 net10
*31 net11
*32 net12
*33 net13
*34 net14
*35 net15
*36 net16
*37 net2
*38 net3
*39 net4
*40 net5
*41 net6
*42 net7
*43 net8
*44 net9
*45 FILLER_0_0_21
*46 FILLER_0_0_27
*47 FILLER_0_0_29
*48 FILLER_0_0_37
*49 FILLER_0_0_9
*50 FILLER_0_10_18
*51 FILLER_0_10_26
*52 FILLER_0_10_29
*53 FILLER_0_10_41
*54 FILLER_0_10_6
*55 FILLER_0_11_21
*56 FILLER_0_11_3
*57 FILLER_0_11_33
*58 FILLER_0_11_41
*59 FILLER_0_11_46
*60 FILLER_0_12_21
*61 FILLER_0_12_27
*62 FILLER_0_12_29
*63 FILLER_0_12_37
*64 FILLER_0_12_9
*65 FILLER_0_1_16
*66 FILLER_0_1_28
*67 FILLER_0_1_3
*68 FILLER_0_1_36
*69 FILLER_0_2_10
*70 FILLER_0_2_14
*71 FILLER_0_2_21
*72 FILLER_0_2_27
*73 FILLER_0_2_3
*74 FILLER_0_2_36
*75 FILLER_0_2_42
*76 FILLER_0_3_18
*77 FILLER_0_3_24
*78 FILLER_0_3_31
*79 FILLER_0_3_38
*80 FILLER_0_3_6
*81 FILLER_0_4_15
*82 FILLER_0_4_27
*83 FILLER_0_4_29
*84 FILLER_0_4_3
*85 FILLER_0_4_38
*86 FILLER_0_4_46
*87 FILLER_0_5_18
*88 FILLER_0_5_30
*89 FILLER_0_5_42
*90 FILLER_0_5_6
*91 FILLER_0_6_15
*92 FILLER_0_6_19
*93 FILLER_0_6_26
*94 FILLER_0_6_29
*95 FILLER_0_6_3
*96 FILLER_0_6_41
*97 FILLER_0_6_47
*98 FILLER_0_7_15
*99 FILLER_0_7_27
*100 FILLER_0_7_39
*101 FILLER_0_7_47
*102 FILLER_0_8_18
*103 FILLER_0_8_25
*104 FILLER_0_8_29
*105 FILLER_0_8_41
*106 FILLER_0_8_6
*107 FILLER_0_9_15
*108 FILLER_0_9_27
*109 FILLER_0_9_3
*110 FILLER_0_9_39
*111 FILLER_0_9_47
*112 PHY_EDGE_ROW_0_Left_13
*113 PHY_EDGE_ROW_0_Right_0
*114 PHY_EDGE_ROW_10_Left_23
*115 PHY_EDGE_ROW_10_Right_10
*116 PHY_EDGE_ROW_11_Left_24
*117 PHY_EDGE_ROW_11_Right_11
*118 PHY_EDGE_ROW_12_Left_25
*119 PHY_EDGE_ROW_12_Right_12
*120 PHY_EDGE_ROW_1_Left_14
*121 PHY_EDGE_ROW_1_Right_1
*122 PHY_EDGE_ROW_2_Left_15
*123 PHY_EDGE_ROW_2_Right_2
*124 PHY_EDGE_ROW_3_Left_16
*125 PHY_EDGE_ROW_3_Right_3
*126 PHY_EDGE_ROW_4_Left_17
*127 PHY_EDGE_ROW_4_Right_4
*128 PHY_EDGE_ROW_5_Left_18
*129 PHY_EDGE_ROW_5_Right_5
*130 PHY_EDGE_ROW_6_Left_19
*131 PHY_EDGE_ROW_6_Right_6
*132 PHY_EDGE_ROW_7_Left_20
*133 PHY_EDGE_ROW_7_Right_7
*134 PHY_EDGE_ROW_8_Left_21
*135 PHY_EDGE_ROW_8_Right_8
*136 PHY_EDGE_ROW_9_Left_22
*137 PHY_EDGE_ROW_9_Right_9
*138 TAP_TAPCELL_ROW_0_26
*139 TAP_TAPCELL_ROW_10_31
*140 TAP_TAPCELL_ROW_12_32
*141 TAP_TAPCELL_ROW_2_27
*142 TAP_TAPCELL_ROW_4_28
*143 TAP_TAPCELL_ROW_6_29
*144 TAP_TAPCELL_ROW_8_30
*145 _10_
*146 _11_
*147 _12_
*148 _13_
*149 _14_
*150 _15_
*151 _16_
*152 _17_
*153 _18_
*154 _19_
*155 _20_
*156 _21_
*157 _22_
*158 _23_
*159 _24_
*160 _25_
*161 _26_
*162 _27_
*163 input1
*164 input2
*165 input3
*166 input4
*167 input5
*168 input6
*169 input7
*170 input8
*171 output10
*172 output11
*173 output12
*174 output13
*175 output14
*176 output15
*177 output16
*178 output9

*PORTS
x[0] I
x[1] I
x[2] I
x[3] I
x[4] I
x[5] I
x[6] I
x[7] I
y[0] O
y[1] O
y[2] O
y[3] O
y[4] O
y[5] O
y[6] O
y[7] O

*D_NET *3 0.00101438
*CONN
*P x[0] I
*I *163:A I *D sky130_fd_sc_hd__buf_1
*CAP
1 x[0] 0.000507191
2 *163:A 0.000507191
3 *163:A *164:A 0
*RES
1 x[0] *163:A 10.2018 
*END

*D_NET *4 0.000762875
*CONN
*P x[1] I
*I *164:A I *D sky130_fd_sc_hd__buf_1
*CAP
1 x[1] 0.000357294
2 *164:A 0.000357294
3 *164:A *165:A 0
4 *164:A *29:10 4.82863e-05
5 *163:A *164:A 0
*RES
1 x[1] *164:A 8.2293 
*END

*D_NET *5 0.000531065
*CONN
*P x[2] I
*I *165:A I *D sky130_fd_sc_hd__buf_1
*CAP
1 x[2] 0.000265532
2 *165:A 0.000265532
3 *165:A *166:A 0
4 *164:A *165:A 0
*RES
1 x[2] *165:A 6.8343 
*END

*D_NET *6 0.000650885
*CONN
*P x[3] I
*I *166:A I *D sky130_fd_sc_hd__clkbuf_1
*CAP
1 x[3] 0.000322527
2 *166:A 0.000322527
3 *166:A *148:D 5.83121e-06
4 *166:A *167:A 0
5 *166:A *38:8 0
6 *165:A *166:A 0
*RES
1 x[3] *166:A 7.8543 
*END

*D_NET *7 0.0005615
*CONN
*P x[4] I
*I *167:A I *D sky130_fd_sc_hd__buf_1
*CAP
1 x[4] 0.00028075
2 *167:A 0.00028075
3 *167:A *146:A 0
4 *167:A *168:A 0
5 *166:A *167:A 0
*RES
1 x[4] *167:A 7.0893 
*END

*D_NET *8 0.000666425
*CONN
*P x[5] I
*I *168:A I *D sky130_fd_sc_hd__buf_1
*CAP
1 x[5] 0.000333212
2 *168:A 0.000333212
3 *168:A *146:A 0
4 *168:A *169:A 0
5 *167:A *168:A 0
*RES
1 x[5] *168:A 8.1093 
*END

*D_NET *9 0.000523624
*CONN
*P x[6] I
*I *169:A I *D sky130_fd_sc_hd__clkbuf_1
*CAP
1 x[6] 0.000261812
2 *169:A 0.000261812
3 *169:A *170:A 0
4 *168:A *169:A 0
*RES
1 x[6] *169:A 6.8343 
*END

*D_NET *10 0.00115517
*CONN
*P x[7] I
*I *170:A I *D sky130_fd_sc_hd__buf_1
*CAP
1 x[7] 0.000577586
2 *170:A 0.000577586
3 *169:A *170:A 0
*RES
1 x[7] *170:A 10.6316 
*END

*D_NET *11 0.00109227
*CONN
*P y[0] O
*I *178:X O *D sky130_fd_sc_hd__buf_2
*CAP
1 y[0] 0.000546133
2 *178:X 0.000546133
3 y[0] y[1] 0
*RES
1 *178:X y[0] 9.66983 
*END

*D_NET *12 0.000411239
*CONN
*P y[1] O
*I *171:X O *D sky130_fd_sc_hd__buf_2
*CAP
1 y[1] 0.00020562
2 *171:X 0.00020562
3 y[1] y[2] 0
4 y[0] y[1] 0
*RES
1 *171:X y[1] 4.84677 
*END

*D_NET *13 0.000413408
*CONN
*P y[2] O
*I *172:X O *D sky130_fd_sc_hd__buf_2
*CAP
1 y[2] 0.000200848
2 *172:X 0.000200848
3 y[2] y[3] 0
4 y[2] *173:A 1.17114e-05
5 y[1] y[2] 0
*RES
1 *172:X y[2] 4.84677 
*END

*D_NET *14 0.000545973
*CONN
*P y[3] O
*I *173:X O *D sky130_fd_sc_hd__buf_2
*CAP
1 y[3] 0.000250969
2 *173:X 0.000250969
3 y[3] y[4] 0
4 y[3] *177:A 4.40358e-05
5 y[2] y[3] 0
*RES
1 *173:X y[3] 5.86677 
*END

*D_NET *15 0.000420271
*CONN
*P y[4] O
*I *174:X O *D sky130_fd_sc_hd__buf_2
*CAP
1 y[4] 0.000205801
2 *174:X 0.000205801
3 y[4] y[5] 0
4 y[4] *177:A 8.66976e-06
5 y[3] y[4] 0
*RES
1 *174:X y[4] 4.84677 
*END

*D_NET *16 0.000628847
*CONN
*P y[5] O
*I *175:X O *D sky130_fd_sc_hd__buf_2
*CAP
1 y[5] 0.000236208
2 *175:X 0.000236208
3 y[5] y[6] 0
4 y[5] *152:A 0.000106344
5 y[5] *175:A 3.86607e-05
6 y[5] *177:A 1.14274e-05
7 y[4] y[5] 0
*RES
1 *175:X y[5] 5.86677 
*END

*D_NET *17 0.000718564
*CONN
*P y[6] O
*I *176:X O *D sky130_fd_sc_hd__buf_2
*CAP
1 y[6] 0.000359282
2 *176:X 0.000359282
3 y[6] y[7] 0
4 y[5] y[6] 0
*RES
1 *176:X y[6] 5.19637 
*END

*D_NET *18 0.000971234
*CONN
*P y[7] O
*I *177:X O *D sky130_fd_sc_hd__clkbuf_4
*CAP
1 y[7] 0.000485617
2 *177:X 0.000485617
3 y[6] y[7] 0
*RES
1 *177:X y[7] 10.1435 
*END

*D_NET *19 0.00357201
*CONN
*I *161:A I *D sky130_fd_sc_hd__nor2_1
*I *146:B I *D sky130_fd_sc_hd__xnor2_1
*I *145:Y O *D sky130_fd_sc_hd__nor2_1
*CAP
1 *161:A 0.000377816
2 *146:B 0.000231101
3 *145:Y 0
4 *19:6 0.000608917
5 *146:B *150:A 0.000241171
6 *146:B *159:A 2.46007e-05
7 *146:B *161:B 0.000172888
8 *146:B *176:A 8.5225e-05
9 *146:B *29:30 3.23391e-05
10 *161:A *150:A 0.00123098
11 *161:A *161:B 0.000517008
12 *161:A *177:A 4.99619e-05
*RES
1 *145:Y *19:6 3.6 
2 *19:6 *146:B 9.525 
3 *19:6 *161:A 18.525 
*END

*D_NET *20 0.00309143
*CONN
*I *149:A_N I *D sky130_fd_sc_hd__and2b_1
*I *147:X O *D sky130_fd_sc_hd__o31a_1
*CAP
1 *149:A_N 0.000893426
2 *147:X 0.000893426
3 *149:A_N *147:A1 4.89295e-05
4 *149:A_N *147:A2 6.09621e-05
5 *149:A_N *147:A3 9.30787e-05
6 *149:A_N *147:B1 0.000575951
7 *149:A_N *151:B 0
8 *149:A_N *153:A 8.23396e-05
9 *149:A_N *153:B 0.000443321
10 *149:A_N *154:B 0
11 *149:A_N *156:B1 0
12 *149:A_N *157:B 0
13 *149:A_N *21:10 0
*RES
1 *147:X *149:A_N 27.345 
*END

*D_NET *21 0.00641908
*CONN
*I *151:B I *D sky130_fd_sc_hd__nor2_1
*I *156:A3 I *D sky130_fd_sc_hd__o31ai_1
*I *149:B I *D sky130_fd_sc_hd__and2b_1
*I *152:B I *D sky130_fd_sc_hd__and2_1
*I *155:D I *D sky130_fd_sc_hd__or4_1
*I *148:X O *D sky130_fd_sc_hd__or4_2
*CAP
1 *151:B 0.000158436
2 *156:A3 0
3 *149:B 0.000387275
4 *152:B 0.000236335
5 *155:D 0
6 *148:X 0.00039962
7 *21:31 0.00086253
8 *21:16 0.000439891
9 *21:10 0.000247845
10 *21:8 0.000604931
11 *149:B *153:B 0.000496006
12 *149:B *176:A 1.16854e-05
13 *151:B *151:A 5.46217e-05
14 *151:B *154:B 0.000185411
15 *151:B *157:B 6.45236e-05
16 *152:B *145:A 2.46089e-05
17 *152:B *153:B 0.000232091
18 *152:B *159:A 7.30547e-05
19 *152:B *175:A 1.47347e-05
20 *152:B *176:A 0.000229536
21 *21:8 *157:A 0.000176879
22 *21:8 *157:B 2.71835e-05
23 *21:8 *158:A 8.4841e-05
24 *21:10 *154:B 0.000141592
25 *21:10 *157:B 7.23533e-05
26 *21:16 *154:B 0.000499089
27 *21:16 *156:B1 0.000350921
28 *21:31 *145:A 0.000147471
29 *21:31 *152:A 2.16833e-05
30 *21:31 *156:B1 2.05056e-05
31 *21:31 *159:A 7.46606e-05
32 *21:31 *25:10 7.06865e-05
33 *21:31 *40:12 8.08153e-06
34 *149:A_N *151:B 0
35 *149:A_N *21:10 0
*RES
1 *148:X *21:8 8.535 
2 *21:8 *21:10 1.635 
3 *21:10 *21:16 8.855 
4 *21:16 *155:D 1.6 
5 *21:16 *21:31 6.62 
6 *21:31 *152:B 9.06 
7 *21:31 *149:B 8.895 
8 *21:10 *156:A3 3.6 
9 *21:8 *151:B 7.26 
*END

*D_NET *22 0.0056951
*CONN
*I *150:A I *D sky130_fd_sc_hd__clkbuf_1
*I *149:X O *D sky130_fd_sc_hd__and2b_1
*CAP
1 *150:A 0.00102351
2 *149:X 0.00102351
3 *150:A *159:A 0.000110087
4 *150:A *162:A 0.000183738
5 *150:A *174:A 0.00108738
6 *150:A *176:A 0.000574279
7 *150:A *178:A 0
8 *150:A *29:30 0.000220452
9 *146:B *150:A 0.000241171
10 *161:A *150:A 0.00123098
*RES
1 *149:X *150:A 34.575 
*END

*D_NET *23 0.00468071
*CONN
*I *153:A I *D sky130_fd_sc_hd__nor2_1
*I *154:B I *D sky130_fd_sc_hd__xnor2_1
*I *151:Y O *D sky130_fd_sc_hd__nor2_1
*CAP
1 *153:A 0.000667106
2 *154:B 0.000414413
3 *151:Y 0
4 *23:6 0.00108152
5 *153:A *147:A1 0.000282925
6 *153:A *147:A2 4.13375e-05
7 *153:A *147:B1 4.82919e-05
8 *153:A *151:A 0
9 *153:A *159:B 0
10 *154:B *151:A 0
11 *154:B *153:B 0.00027042
12 *154:B *154:A 0.000346809
13 *154:B *156:A2 0.000578169
14 *154:B *156:B1 1.82563e-05
15 *154:B *176:A 2.30292e-05
16 *149:A_N *153:A 8.23396e-05
17 *149:A_N *154:B 0
18 *151:B *154:B 0.000185411
19 *21:10 *154:B 0.000141592
20 *21:16 *154:B 0.000499089
*RES
1 *151:Y *23:6 3.6 
2 *23:6 *154:B 17.7 
3 *23:6 *153:A 15.45 
*END

*D_NET *24 0.00506052
*CONN
*I *153:B I *D sky130_fd_sc_hd__nor2_1
*I *152:X O *D sky130_fd_sc_hd__and2_1
*CAP
1 *153:B 0.00121831
2 *152:X 0.00121831
3 *153:B *147:B1 0.000588413
4 *153:B *154:A 2.30292e-05
5 *153:B *156:B1 8.30853e-06
6 *153:B *174:A 9.09788e-06
7 *153:B *175:A 0.000342784
8 *153:B *176:A 7.53742e-05
9 *153:B *41:6 0.00013505
10 *149:A_N *153:B 0.000443321
11 *149:B *153:B 0.000496006
12 *152:B *153:B 0.000232091
13 *154:B *153:B 0.00027042
*RES
1 *152:X *153:B 40.075 
*END

*D_NET *25 0.00382633
*CONN
*I *159:B I *D sky130_fd_sc_hd__xor2_1
*I *157:A I *D sky130_fd_sc_hd__and2_1
*I *155:X O *D sky130_fd_sc_hd__or4_1
*CAP
1 *159:B 0.000250775
2 *157:A 0.000323527
3 *155:X 0.000384243
4 *25:10 0.000958545
5 *157:A *157:B 0.000272383
6 *159:B *151:A 0
7 *159:B *159:A 0.00054761
8 *159:B *174:A 1.34361e-05
9 *25:10 *151:A 0
10 *25:10 *152:A 8.40213e-05
11 *25:10 *159:A 0.000744223
12 *25:10 *40:12 0
13 *25:10 *40:38 0
14 *153:A *159:B 0
15 *21:8 *157:A 0.000176879
16 *21:31 *25:10 7.06865e-05
*RES
1 *155:X *25:10 12.915 
2 *25:10 *157:A 9.915 
3 *25:10 *159:B 10.08 
*END

*D_NET *26 0.000902426
*CONN
*I *157:B I *D sky130_fd_sc_hd__and2_1
*I *156:Y O *D sky130_fd_sc_hd__o31ai_1
*CAP
1 *157:B 0.000232991
2 *156:Y 0.000232991
3 *149:A_N *157:B 0
4 *151:B *157:B 6.45236e-05
5 *157:A *157:B 0.000272383
6 *21:8 *157:B 2.71835e-05
7 *21:10 *157:B 7.23533e-05
*RES
1 *156:Y *157:B 12.045 
*END

*D_NET *27 0.00237215
*CONN
*I *158:A I *D sky130_fd_sc_hd__clkbuf_1
*I *157:X O *D sky130_fd_sc_hd__and2_1
*CAP
1 *158:A 0.000245928
2 *157:X 0.000245928
3 *158:A *148:A 2.49909e-05
4 *158:A *29:12 3.25831e-05
5 *158:A *29:18 0.000858232
6 *158:A *37:16 0.000879645
7 *21:8 *158:A 8.4841e-05
*RES
1 *157:X *158:A 18.39 
*END

*D_NET *28 0.00504888
*CONN
*I *161:B I *D sky130_fd_sc_hd__nor2_1
*I *160:X O *D sky130_fd_sc_hd__and2_1
*CAP
1 *161:B 0.000693806
2 *160:X 0.000693806
3 *161:B *146:A 0.000616232
4 *161:B *172:A 0.000451351
5 *161:B *176:A 0.000114492
6 *161:B *177:A 4.66108e-05
7 *161:B *178:A 0.00101411
8 *161:B *29:30 0.000728581
9 *146:B *161:B 0.000172888
10 *161:A *161:B 0.000517008
*RES
1 *160:X *161:B 33.99 
*END

*D_NET *29 0.00920724
*CONN
*I *147:A2 I *D sky130_fd_sc_hd__o31a_1
*I *148:B I *D sky130_fd_sc_hd__or4_2
*I *160:B I *D sky130_fd_sc_hd__and2_1
*I *162:A I *D sky130_fd_sc_hd__clkbuf_1
*I *145:B I *D sky130_fd_sc_hd__nor2_1
*I *163:X O *D sky130_fd_sc_hd__buf_1
*CAP
1 *147:A2 0.000313132
2 *148:B 0
3 *160:B 0
4 *162:A 8.26091e-05
5 *145:B 6.90981e-05
6 *163:X 0.000120941
7 *29:30 0.000831687
8 *29:18 0.000979667
9 *29:12 0.000512387
10 *29:10 0.000646773
11 *145:B *145:A 4.66108e-05
12 *145:B *152:A 0.000119762
13 *147:A2 *147:A1 3.31413e-05
14 *147:A2 *147:B1 1.4174e-05
15 *162:A *159:A 0.000176873
16 *29:10 *37:8 3.31204e-05
17 *29:10 *37:10 5.74095e-05
18 *29:12 *146:A 4.61595e-05
19 *29:12 *37:10 0.000373901
20 *29:12 *37:16 2.4997e-05
21 *29:12 *38:8 0.000614481
22 *29:18 *145:A 8.64421e-05
23 *29:18 *146:A 0.00126105
24 *29:18 *37:16 0.000207025
25 *29:30 *146:A 6.43122e-05
26 *29:30 *159:A 0.000284976
27 *146:B *29:30 3.23391e-05
28 *149:A_N *147:A2 6.09621e-05
29 *150:A *162:A 0.000183738
30 *150:A *29:30 0.000220452
31 *153:A *147:A2 4.13375e-05
32 *158:A *29:12 3.25831e-05
33 *158:A *29:18 0.000858232
34 *161:B *29:30 0.000728581
35 *164:A *29:10 4.82863e-05
*RES
1 *163:X *29:10 5.94 
2 *29:10 *29:12 8.52 
3 *29:12 *29:18 16.1 
4 *29:18 *29:30 17.385 
5 *29:30 *145:B 5.1 
6 *29:30 *162:A 6.195 
7 *29:18 *160:B 1.6 
8 *29:12 *148:B 3.6 
9 *29:10 *147:A2 8.325 
*END

*D_NET *30 0.000850064
*CONN
*I *171:A I *D sky130_fd_sc_hd__buf_2
*I *161:Y O *D sky130_fd_sc_hd__nor2_1
*CAP
1 *171:A 0.000244793
2 *161:Y 0.000244793
3 *171:A *173:A 3.68682e-05
4 *171:A *177:A 2.75229e-05
5 *171:A *178:A 0.000296088
*RES
1 *161:Y *171:A 12.21 
*END

*D_NET *31 0.00377183
*CONN
*I *172:A I *D sky130_fd_sc_hd__buf_2
*I *146:Y O *D sky130_fd_sc_hd__xnor2_1
*CAP
1 *172:A 0.000676789
2 *146:Y 0.000676789
3 *172:A *177:A 0.000952788
4 *172:A *178:A 0.00101411
5 *161:B *172:A 0.000451351
*RES
1 *146:Y *172:A 28.215 
*END

*D_NET *32 0.00101677
*CONN
*I *173:A I *D sky130_fd_sc_hd__buf_2
*I *150:X O *D sky130_fd_sc_hd__clkbuf_1
*CAP
1 *173:A 0.000289897
2 *150:X 0.000289897
3 *173:A *177:A 0.0003884
4 *173:A *178:A 0
5 y[2] *173:A 1.17114e-05
6 *171:A *173:A 3.68682e-05
*RES
1 *150:X *173:A 13.62 
*END

*D_NET *33 0.00488642
*CONN
*I *174:A I *D sky130_fd_sc_hd__buf_2
*I *153:Y O *D sky130_fd_sc_hd__nor2_1
*CAP
1 *174:A 0.00144524
2 *153:Y 0.00144524
3 *174:A *159:A 0.000886035
4 *174:A *178:A 0
5 *150:A *174:A 0.00108738
6 *153:B *174:A 9.09788e-06
7 *159:B *174:A 1.34361e-05
*RES
1 *153:Y *174:A 37.45 
*END

*D_NET *34 0.00119995
*CONN
*I *175:A I *D sky130_fd_sc_hd__buf_2
*I *154:Y O *D sky130_fd_sc_hd__xnor2_1
*CAP
1 *175:A 0.000328224
2 *154:Y 0.000328224
3 *175:A *152:A 8.08153e-06
4 *175:A *177:A 0.000139245
5 y[5] *175:A 3.86607e-05
6 *152:B *175:A 1.47347e-05
7 *153:B *175:A 0.000342784
*RES
1 *154:Y *175:A 12.39 
*END

*D_NET *35 0.00266753
*CONN
*I *176:A I *D sky130_fd_sc_hd__buf_2
*I *158:X O *D sky130_fd_sc_hd__clkbuf_1
*CAP
1 *176:A 0.000639625
2 *158:X 0.000639625
3 *176:A *154:A 0.000274659
4 *176:A *159:A 0
5 *176:A *177:A 0
6 *146:B *176:A 8.5225e-05
7 *149:B *176:A 1.16854e-05
8 *150:A *176:A 0.000574279
9 *152:B *176:A 0.000229536
10 *153:B *176:A 7.53742e-05
11 *154:B *176:A 2.30292e-05
12 *161:B *176:A 0.000114492
*RES
1 *158:X *176:A 21.6 
*END

*D_NET *36 0.00349021
*CONN
*I *177:A I *D sky130_fd_sc_hd__clkbuf_4
*I *159:X O *D sky130_fd_sc_hd__xor2_1
*CAP
1 *177:A 0.000907167
2 *159:X 0.000907167
3 *177:A *152:A 0
4 *177:A *178:A 7.21296e-06
5 y[3] *177:A 4.40358e-05
6 y[4] *177:A 8.66976e-06
7 y[5] *177:A 1.14274e-05
8 *161:A *177:A 4.99619e-05
9 *161:B *177:A 4.66108e-05
10 *171:A *177:A 2.75229e-05
11 *172:A *177:A 0.000952788
12 *173:A *177:A 0.0003884
13 *175:A *177:A 0.000139245
14 *176:A *177:A 0
*RES
1 *159:X *177:A 30.135 
*END

*D_NET *37 0.00718179
*CONN
*I *147:A1 I *D sky130_fd_sc_hd__o31a_1
*I *148:A I *D sky130_fd_sc_hd__or4_2
*I *145:A I *D sky130_fd_sc_hd__nor2_1
*I *160:A I *D sky130_fd_sc_hd__and2_1
*I *164:X O *D sky130_fd_sc_hd__buf_1
*CAP
1 *147:A1 0.000295483
2 *148:A 5.49537e-05
3 *145:A 0.000602419
4 *160:A 0
5 *164:X 4.6095e-05
6 *37:16 0.00121549
7 *37:10 0.00106081
8 *37:8 0.000734362
9 *145:A *146:A 0.000594481
10 *145:A *152:A 0.000169719
11 *145:A *156:A2 0
12 *145:A *40:12 9.50342e-06
13 *145:A *42:12 0.000124292
14 *147:A1 *147:B1 2.97004e-06
15 *145:B *145:A 4.66108e-05
16 *147:A2 *147:A1 3.31413e-05
17 *149:A_N *147:A1 4.89295e-05
18 *152:B *145:A 2.46089e-05
19 *153:A *147:A1 0.000282925
20 *158:A *148:A 2.49909e-05
21 *158:A *37:16 0.000879645
22 *21:31 *145:A 0.000147471
23 *29:10 *37:8 3.31204e-05
24 *29:10 *37:10 5.74095e-05
25 *29:12 *37:10 0.000373901
26 *29:12 *37:16 2.4997e-05
27 *29:18 *145:A 8.64421e-05
28 *29:18 *37:16 0.000207025
*RES
1 *164:X *37:8 4.47 
2 *37:8 *37:10 8.775 
3 *37:10 *37:16 15.74 
4 *37:16 *160:A 1.6 
5 *37:16 *145:A 18.53 
6 *37:10 *148:A 4.395 
7 *37:8 *147:A1 11.875 
*END

*D_NET *38 0.00629951
*CONN
*I *147:A3 I *D sky130_fd_sc_hd__o31a_1
*I *148:C I *D sky130_fd_sc_hd__or4_2
*I *146:A I *D sky130_fd_sc_hd__xnor2_1
*I *165:X O *D sky130_fd_sc_hd__buf_1
*CAP
1 *147:A3 0.000451706
2 *148:C 0
3 *146:A 0.000768408
4 *165:X 0
5 *38:8 0.00102711
6 *38:4 0.000710406
7 *38:8 *148:D 5.2089e-05
8 *145:A *146:A 0.000594481
9 *149:A_N *147:A3 9.30787e-05
10 *161:B *146:A 0.000616232
11 *166:A *38:8 0
12 *167:A *146:A 0
13 *168:A *146:A 0
14 *29:12 *146:A 4.61595e-05
15 *29:12 *38:8 0.000614481
16 *29:18 *146:A 0.00126105
17 *29:30 *146:A 6.43122e-05
*RES
1 *165:X *38:4 1.6 
2 *38:4 *38:8 8.99 
3 *38:8 *146:A 24.975 
4 *38:8 *148:C 3.6 
5 *38:4 *147:A3 10.625 
*END

*D_NET *39 0.00253061
*CONN
*I *147:B1 I *D sky130_fd_sc_hd__o31a_1
*I *148:D I *D sky130_fd_sc_hd__or4_2
*I *166:X O *D sky130_fd_sc_hd__clkbuf_1
*CAP
1 *147:B1 0.00049299
2 *148:D 0.000128456
3 *166:X 0
4 *39:4 0.000621446
5 *147:A1 *147:B1 2.97004e-06
6 *147:A2 *147:B1 1.4174e-05
7 *149:A_N *147:B1 0.000575951
8 *153:A *147:B1 4.82919e-05
9 *153:B *147:B1 0.000588413
10 *166:A *148:D 5.83121e-06
11 *38:8 *148:D 5.2089e-05
*RES
1 *166:X *39:4 1.6 
2 *39:4 *148:D 7.52 
3 *39:4 *147:B1 16.25 
*END

*D_NET *40 0.00505152
*CONN
*I *151:A I *D sky130_fd_sc_hd__nor2_1
*I *156:A1 I *D sky130_fd_sc_hd__o31ai_1
*I *155:A I *D sky130_fd_sc_hd__or4_1
*I *152:A I *D sky130_fd_sc_hd__and2_1
*I *167:X O *D sky130_fd_sc_hd__buf_1
*CAP
1 *151:A 0.00043066
2 *156:A1 7.95331e-05
3 *155:A 0
4 *152:A 0.00055865
5 *167:X 0.000794891
6 *40:38 0.000668176
7 *40:12 0.000771783
8 *40:8 0.00116601
9 *40:12 *156:A2 0
10 *40:38 *156:A2 0
11 y[5] *152:A 0.000106344
12 *145:A *152:A 0.000169719
13 *145:A *40:12 9.50342e-06
14 *145:B *152:A 0.000119762
15 *151:B *151:A 5.46217e-05
16 *153:A *151:A 0
17 *154:B *151:A 0
18 *159:B *151:A 0
19 *175:A *152:A 8.08153e-06
20 *177:A *152:A 0
21 *21:31 *152:A 2.16833e-05
22 *21:31 *40:12 8.08153e-06
23 *25:10 *151:A 0
24 *25:10 *152:A 8.40213e-05
25 *25:10 *40:12 0
26 *25:10 *40:38 0
*RES
1 *167:X *40:8 11.64 
2 *40:8 *40:12 5.42 
3 *40:12 *152:A 14.72 
4 *40:12 *155:A 1.6 
5 *40:8 *40:38 2.655 
6 *40:38 *156:A1 4.74 
7 *40:38 *151:A 10.575 
*END

*D_NET *41 0.00360136
*CONN
*I *155:B I *D sky130_fd_sc_hd__or4_1
*I *156:A2 I *D sky130_fd_sc_hd__o31ai_1
*I *154:A I *D sky130_fd_sc_hd__xnor2_1
*I *168:X O *D sky130_fd_sc_hd__buf_1
*CAP
1 *155:B 2.88526e-05
2 *156:A2 0.000286798
3 *154:A 0.000111939
4 *168:X 0.000585214
5 *41:8 0.000398738
6 *41:6 0.000614067
7 *154:A *42:12 6.9117e-05
8 *155:B *156:B1 2.75229e-05
9 *156:A2 *42:12 2.86623e-05
10 *41:6 *156:B1 9.27326e-05
11 *145:A *156:A2 0
12 *153:B *154:A 2.30292e-05
13 *153:B *41:6 0.00013505
14 *154:B *154:A 0.000346809
15 *154:B *156:A2 0.000578169
16 *176:A *154:A 0.000274659
17 *40:12 *156:A2 0
18 *40:38 *156:A2 0
*RES
1 *168:X *41:6 8.26 
2 *41:6 *41:8 2 
3 *41:8 *154:A 7.755 
4 *41:8 *156:A2 10.6125 
5 *41:6 *155:B 2.05 
*END

*D_NET *42 0.00381234
*CONN
*I *155:C I *D sky130_fd_sc_hd__or4_1
*I *156:B1 I *D sky130_fd_sc_hd__o31ai_1
*I *169:X O *D sky130_fd_sc_hd__clkbuf_1
*CAP
1 *155:C 0
2 *156:B1 0.000357164
3 *169:X 0.000832097
4 *42:12 0.00118926
5 *42:12 *159:A 0.000693496
6 *145:A *42:12 0.000124292
7 *149:A_N *156:B1 0
8 *153:B *156:B1 8.30853e-06
9 *154:A *42:12 6.9117e-05
10 *154:B *156:B1 1.82563e-05
11 *155:B *156:B1 2.75229e-05
12 *156:A2 *42:12 2.86623e-05
13 *21:16 *156:B1 0.000350921
14 *21:31 *156:B1 2.05056e-05
15 *41:6 *156:B1 9.27326e-05
*RES
1 *169:X *42:12 18.41 
2 *42:12 *156:B1 14 
3 *42:12 *155:C 1.6 
*END

*D_NET *43 0.0055522
*CONN
*I *159:A I *D sky130_fd_sc_hd__xor2_1
*I *170:X O *D sky130_fd_sc_hd__buf_1
*CAP
1 *159:A 0.000968292
2 *170:X 0.000968292
3 *146:B *159:A 2.46007e-05
4 *150:A *159:A 0.000110087
5 *152:B *159:A 7.30547e-05
6 *159:B *159:A 0.00054761
7 *162:A *159:A 0.000176873
8 *174:A *159:A 0.000886035
9 *176:A *159:A 0
10 *21:31 *159:A 7.46606e-05
11 *25:10 *159:A 0.000744223
12 *29:30 *159:A 0.000284976
13 *42:12 *159:A 0.000693496
*RES
1 *170:X *159:A 35.925 
*END

*D_NET *44 0.0033451
*CONN
*I *178:A I *D sky130_fd_sc_hd__buf_2
*I *162:X O *D sky130_fd_sc_hd__clkbuf_1
*CAP
1 *178:A 0.000506788
2 *162:X 0.000506788
3 *150:A *178:A 0
4 *161:B *178:A 0.00101411
5 *171:A *178:A 0.000296088
6 *172:A *178:A 0.00101411
7 *173:A *178:A 0
8 *174:A *178:A 0
9 *177:A *178:A 7.21296e-06
*RES
1 *162:X *178:A 24 
*END
