*SPEF "ieee 1481-1999"
*DESIGN "complement"
*DATE "17:46:30 Sunday April 20, 2025"
*VENDOR "The OpenROAD Project"
*PROGRAM "OpenROAD"
*VERSION "b16bda7e82721d10566ff7e2b68f1ff0be9f9e38"
*DESIGN_FLOW "NAME_SCOPE LOCAL" "PIN_CAP NONE"
*DIVIDER /
*DELIMITER :
*BUS_DELIMITER []
*T_UNIT 1 NS
*C_UNIT 1 PF
*R_UNIT 1 OHM
*L_UNIT 1 HENRY

*NAME_MAP
*3 x[0]
*4 x[1]
*5 x[2]
*6 x[3]
*7 x[4]
*8 x[5]
*9 x[6]
*10 x[7]
*11 y[0]
*12 y[1]
*13 y[2]
*14 y[3]
*15 y[4]
*16 y[5]
*17 y[6]
*18 y[7]
*19 _00_
*20 _01_
*21 _02_
*22 _03_
*23 _04_
*24 _05_
*25 _06_
*26 _07_
*27 _08_
*28 _09_
*29 net1
*30 net10
*31 net11
*32 net12
*33 net13
*34 net14
*35 net15
*36 net16
*37 net2
*38 net3
*39 net4
*40 net5
*41 net6
*42 net7
*43 net8
*44 net9
*45 FILLER_0_0_21
*46 FILLER_0_0_27
*47 FILLER_0_0_29
*48 FILLER_0_0_37
*49 FILLER_0_0_9
*50 FILLER_0_10_18
*51 FILLER_0_10_26
*52 FILLER_0_10_29
*53 FILLER_0_10_41
*54 FILLER_0_10_6
*55 FILLER_0_11_21
*56 FILLER_0_11_3
*57 FILLER_0_11_33
*58 FILLER_0_11_41
*59 FILLER_0_11_46
*60 FILLER_0_12_21
*61 FILLER_0_12_27
*62 FILLER_0_12_29
*63 FILLER_0_12_37
*64 FILLER_0_12_9
*65 FILLER_0_1_16
*66 FILLER_0_1_28
*67 FILLER_0_1_3
*68 FILLER_0_1_36
*69 FILLER_0_2_10
*70 FILLER_0_2_14
*71 FILLER_0_2_21
*72 FILLER_0_2_27
*73 FILLER_0_2_3
*74 FILLER_0_2_36
*75 FILLER_0_2_42
*76 FILLER_0_3_18
*77 FILLER_0_3_24
*78 FILLER_0_3_31
*79 FILLER_0_3_38
*80 FILLER_0_3_6
*81 FILLER_0_4_15
*82 FILLER_0_4_27
*83 FILLER_0_4_29
*84 FILLER_0_4_3
*85 FILLER_0_4_38
*86 FILLER_0_4_46
*87 FILLER_0_5_18
*88 FILLER_0_5_30
*89 FILLER_0_5_42
*90 FILLER_0_5_6
*91 FILLER_0_6_15
*92 FILLER_0_6_19
*93 FILLER_0_6_26
*94 FILLER_0_6_29
*95 FILLER_0_6_3
*96 FILLER_0_6_41
*97 FILLER_0_6_47
*98 FILLER_0_7_15
*99 FILLER_0_7_27
*100 FILLER_0_7_39
*101 FILLER_0_7_47
*102 FILLER_0_8_18
*103 FILLER_0_8_25
*104 FILLER_0_8_29
*105 FILLER_0_8_41
*106 FILLER_0_8_6
*107 FILLER_0_9_15
*108 FILLER_0_9_27
*109 FILLER_0_9_3
*110 FILLER_0_9_39
*111 FILLER_0_9_47
*112 PHY_EDGE_ROW_0_Left_13
*113 PHY_EDGE_ROW_0_Right_0
*114 PHY_EDGE_ROW_10_Left_23
*115 PHY_EDGE_ROW_10_Right_10
*116 PHY_EDGE_ROW_11_Left_24
*117 PHY_EDGE_ROW_11_Right_11
*118 PHY_EDGE_ROW_12_Left_25
*119 PHY_EDGE_ROW_12_Right_12
*120 PHY_EDGE_ROW_1_Left_14
*121 PHY_EDGE_ROW_1_Right_1
*122 PHY_EDGE_ROW_2_Left_15
*123 PHY_EDGE_ROW_2_Right_2
*124 PHY_EDGE_ROW_3_Left_16
*125 PHY_EDGE_ROW_3_Right_3
*126 PHY_EDGE_ROW_4_Left_17
*127 PHY_EDGE_ROW_4_Right_4
*128 PHY_EDGE_ROW_5_Left_18
*129 PHY_EDGE_ROW_5_Right_5
*130 PHY_EDGE_ROW_6_Left_19
*131 PHY_EDGE_ROW_6_Right_6
*132 PHY_EDGE_ROW_7_Left_20
*133 PHY_EDGE_ROW_7_Right_7
*134 PHY_EDGE_ROW_8_Left_21
*135 PHY_EDGE_ROW_8_Right_8
*136 PHY_EDGE_ROW_9_Left_22
*137 PHY_EDGE_ROW_9_Right_9
*138 TAP_TAPCELL_ROW_0_26
*139 TAP_TAPCELL_ROW_10_31
*140 TAP_TAPCELL_ROW_12_32
*141 TAP_TAPCELL_ROW_2_27
*142 TAP_TAPCELL_ROW_4_28
*143 TAP_TAPCELL_ROW_6_29
*144 TAP_TAPCELL_ROW_8_30
*145 _10_
*146 _11_
*147 _12_
*148 _13_
*149 _14_
*150 _15_
*151 _16_
*152 _17_
*153 _18_
*154 _19_
*155 _20_
*156 _21_
*157 _22_
*158 _23_
*159 _24_
*160 _25_
*161 _26_
*162 _27_
*163 input1
*164 input2
*165 input3
*166 input4
*167 input5
*168 input6
*169 input7
*170 input8
*171 output10
*172 output11
*173 output12
*174 output13
*175 output14
*176 output15
*177 output16
*178 output9

*PORTS
x[0] I
x[1] I
x[2] I
x[3] I
x[4] I
x[5] I
x[6] I
x[7] I
y[0] O
y[1] O
y[2] O
y[3] O
y[4] O
y[5] O
y[6] O
y[7] O

*D_NET *3 0.00114897
*CONN
*P x[0] I
*I *163:A I *D sky130_fd_sc_hd__buf_1
*CAP
1 x[0] 0.000574485
2 *163:A 0
3 *3:11 0.000574485
4 *3:11 *4:19 0
*RES
1 x[0] *3:11 31.4739 
2 *3:11 *163:A 23 
*END

*D_NET *4 0.000881963
*CONN
*P x[1] I
*I *164:A I *D sky130_fd_sc_hd__buf_1
*CAP
1 x[1] 0.000413479
2 *164:A 0
3 *4:19 0.000413479
4 *4:19 *165:A 0
5 *4:19 *29:10 5.50049e-05
6 *3:11 *4:19 0
*RES
1 x[1] *4:19 28.7327 
2 *4:19 *164:A 23 
*END

*D_NET *5 0.000615123
*CONN
*P x[2] I
*I *165:A I *D sky130_fd_sc_hd__buf_1
*CAP
1 x[2] 0.000307562
2 *165:A 0.000307562
3 *165:A *6:17 0
4 *4:19 *165:A 0
*RES
1 x[2] *165:A 49.8062 
*END

*D_NET *6 0.000752802
*CONN
*P x[3] I
*I *166:A I *D sky130_fd_sc_hd__clkbuf_1
*CAP
1 x[3] 0.000373314
2 *166:A 0
3 *6:17 0.000373314
4 *6:17 *7:17 0
5 *6:17 *38:8 0
6 *6:17 *39:12 6.17437e-06
7 *165:A *6:17 0
*RES
1 x[3] *6:17 28.2148 
2 *6:17 *166:A 23 
*END

*D_NET *7 0.000650175
*CONN
*P x[4] I
*I *167:A I *D sky130_fd_sc_hd__buf_1
*CAP
1 x[4] 0.000325087
2 *167:A 0
3 *7:17 0.000325087
4 *7:17 *8:17 0
5 *7:17 *38:18 0
6 *6:17 *7:17 0
*RES
1 x[4] *7:17 27.1584 
2 *7:17 *167:A 23 
*END

*D_NET *8 0.000761607
*CONN
*P x[5] I
*I *168:A I *D sky130_fd_sc_hd__buf_1
*CAP
1 x[5] 0.000380803
2 *168:A 0
3 *8:17 0.000380803
4 *8:17 *169:A 0
5 *8:17 *38:18 0
6 *7:17 *8:17 0
*RES
1 x[5] *8:17 28.567 
2 *8:17 *168:A 23 
*END

*D_NET *9 0.000603153
*CONN
*P x[6] I
*I *169:A I *D sky130_fd_sc_hd__clkbuf_1
*CAP
1 x[6] 0.000301577
2 *169:A 0.000301577
3 *169:A *10:11 0
4 *8:17 *169:A 0
*RES
1 x[6] *169:A 49.8062 
*END

*D_NET *10 0.00130197
*CONN
*P x[7] I
*I *170:A I *D sky130_fd_sc_hd__buf_1
*CAP
1 x[7] 0.000650983
2 *170:A 0
3 *10:11 0.000650983
4 *169:A *10:11 0
*RES
1 x[7] *10:11 32.0837 
2 *10:11 *170:A 23 
*END

*D_NET *11 0.00123536
*CONN
*P y[0] O
*I *178:X O *D sky130_fd_sc_hd__buf_2
*CAP
1 y[0] 0.00029892
2 *178:X 0.000318757
3 *11:8 0.000617678
4 y[0] y[1] 0
*RES
1 *178:X *11:8 44.6596 
2 *11:8 y[0] 9.10133 
*END

*D_NET *12 0.00046494
*CONN
*P y[1] O
*I *171:X O *D sky130_fd_sc_hd__buf_2
*CAP
1 y[1] 0.00023247
2 *171:X 0.00023247
3 y[1] y[2] 0
4 y[0] y[1] 0
*RES
1 *171:X y[1] 47.0789 
*END

*D_NET *13 0.000467688
*CONN
*P y[2] O
*I *172:X O *D sky130_fd_sc_hd__buf_2
*CAP
1 y[2] 0.000227473
2 *172:X 0.000227473
3 y[2] y[3] 0
4 y[2] *32:10 1.27424e-05
5 y[1] y[2] 0
*RES
1 *172:X y[2] 47.0789 
*END

*D_NET *14 0.000630749
*CONN
*P y[3] O
*I *173:X O *D sky130_fd_sc_hd__buf_2
*CAP
1 y[3] 0.000293745
2 *173:X 0.000293745
3 y[3] y[4] 0
4 y[3] *36:12 4.32584e-05
5 y[2] y[3] 0
*RES
1 *173:X y[3] 48.4875 
*END

*D_NET *15 0.000479283
*CONN
*P y[4] O
*I *174:X O *D sky130_fd_sc_hd__buf_2
*CAP
1 y[4] 0.000235331
2 *174:X 0.000235331
3 y[4] y[5] 0
4 y[4] *36:12 8.62073e-06
5 y[3] y[4] 0
*RES
1 *174:X y[4] 47.0789 
*END

*D_NET *16 0.000748199
*CONN
*P y[5] O
*I *175:X O *D sky130_fd_sc_hd__buf_2
*CAP
1 y[5] 0.000284477
2 *175:X 0.000284477
3 y[5] y[6] 0
4 y[5] *34:10 4.08641e-05
5 y[5] *36:12 1.08015e-05
6 y[5] *40:26 0.00012758
7 y[4] y[5] 0
*RES
1 *175:X y[5] 48.4875 
*END

*D_NET *17 0.000823126
*CONN
*P y[6] O
*I *176:X O *D sky130_fd_sc_hd__buf_2
*CAP
1 y[6] 0.000411563
2 *176:X 0.000411563
3 y[6] y[7] 0
4 y[5] y[6] 0
*RES
1 *176:X y[6] 47.5941 
*END

*D_NET *18 0.00110166
*CONN
*P y[7] O
*I *177:X O *D sky130_fd_sc_hd__clkbuf_4
*CAP
1 y[7] 0.000175108
2 *177:X 0.000375724
3 *18:8 0.000550832
4 y[6] y[7] 0
*RES
1 *177:X *18:8 45.7161 
2 *18:8 y[7] 8.672 
*END

*D_NET *19 0.0043916
*CONN
*I *161:A I *D sky130_fd_sc_hd__nor2_1
*I *146:B I *D sky130_fd_sc_hd__xnor2_1
*I *145:Y O *D sky130_fd_sc_hd__nor2_1
*CAP
1 *161:A 0
2 *146:B 0.000344438
3 *145:Y 0
4 *19:23 0.000522667
5 *19:6 0.000867106
6 *146:B *22:14 0.000287463
7 *146:B *28:8 9.91798e-05
8 *146:B *28:14 7.67355e-05
9 *146:B *29:30 3.3746e-05
10 *146:B *35:14 9.04083e-05
11 *146:B *43:10 2.36844e-05
12 *19:23 *22:14 0.00147734
13 *19:23 *28:14 0.000512127
14 *19:23 *36:8 5.67058e-05
*RES
1 *145:Y *19:6 38 
2 *19:6 *146:B 46.1821 
3 *19:6 *19:23 35.6107 
4 *19:23 *161:A 23 
*END

*D_NET *20 0.00376236
*CONN
*I *149:A_N I *D sky130_fd_sc_hd__and2b_1
*I *147:X O *D sky130_fd_sc_hd__o31a_1
*CAP
1 *149:A_N 0
2 *147:X 0.000103738
3 *20:14 0.00103348
4 *20:10 0.00113722
5 *20:10 *147:A1 5.79559e-05
6 *20:10 *147:A2 6.69525e-05
7 *20:10 *23:25 9.13115e-05
8 *20:10 *39:27 1.32314e-05
9 *20:14 *151:B 0
10 *20:14 *21:10 0
11 *20:14 *23:12 0
12 *20:14 *23:25 0
13 *20:14 *24:16 0
14 *20:14 *24:20 0.00047094
15 *20:14 *26:8 0
16 *20:14 *38:38 0.000110922
17 *20:14 *39:27 0.00067661
18 *20:14 *42:20 0
*RES
1 *147:X *20:10 41.0243 
2 *20:10 *20:14 39.795 
3 *20:14 *149:A_N 23 
*END

*D_NET *21 0.00789832
*CONN
*I *151:B I *D sky130_fd_sc_hd__nor2_1
*I *156:A3 I *D sky130_fd_sc_hd__o31ai_1
*I *149:B I *D sky130_fd_sc_hd__and2b_1
*I *152:B I *D sky130_fd_sc_hd__and2_1
*I *155:D I *D sky130_fd_sc_hd__or4_1
*I *148:X O *D sky130_fd_sc_hd__or4_2
*CAP
1 *151:B 0.000208158
2 *156:A3 0
3 *149:B 0.000474444
4 *152:B 0.000339837
5 *155:D 0
6 *148:X 0.000502874
7 *21:31 0.0011368
8 *21:16 0.000604733
9 *21:10 0.000346897
10 *21:8 0.000775718
11 *149:B *24:8 0.000564588
12 *149:B *35:8 1.08287e-05
13 *151:B *151:A 5.84916e-05
14 *151:B *23:12 0.000222123
15 *151:B *26:8 7.70737e-05
16 *152:B *24:8 0.00024723
17 *152:B *34:10 1.5769e-05
18 *152:B *35:8 0.000261951
19 *152:B *37:31 2.29192e-05
20 *152:B *43:10 8.72173e-05
21 *21:8 *157:A 0.000193476
22 *21:8 *157:B 2.82268e-05
23 *21:8 *27:8 9.92345e-05
24 *21:10 *23:12 0.000169665
25 *21:10 *26:8 8.62783e-05
26 *21:16 *23:12 0.000598625
27 *21:16 *42:20 0.000379064
28 *21:31 *25:10 8.4047e-05
29 *21:31 *37:31 0.00016184
30 *21:31 *40:12 7.75329e-06
31 *21:31 *40:26 2.32004e-05
32 *21:31 *42:20 2.18409e-05
33 *21:31 *43:10 8.74165e-05
34 *20:14 *151:B 0
35 *20:14 *21:10 0
*RES
1 *148:X *21:8 44.815 
2 *21:8 *21:10 2.25786 
3 *21:10 *21:16 24.4664 
4 *21:16 *155:D 23 
5 *21:16 *21:31 21.38 
6 *21:31 *152:B 45.54 
7 *21:31 *149:B 45.3121 
8 *21:10 *156:A3 38 
9 *21:8 *151:B 43.0543 
*END

*D_NET *22 0.00698559
*CONN
*I *150:A I *D sky130_fd_sc_hd__clkbuf_1
*I *149:X O *D sky130_fd_sc_hd__and2b_1
*CAP
1 *150:A 0
2 *149:X 0.000461354
3 *22:14 0.000868441
4 *22:8 0.00132979
5 *22:8 *35:8 0.000653227
6 *22:14 *162:A 0.000219882
7 *22:14 *29:30 0.000262829
8 *22:14 *33:20 0.00130553
9 *22:14 *43:10 0.000119725
10 *22:14 *44:12 0
11 *146:B *22:14 0.000287463
12 *19:23 *22:14 0.00147734
*RES
1 *149:X *22:8 45.2914 
2 *22:8 *22:14 45.5121 
3 *22:14 *150:A 23 
*END

*D_NET *23 0.0057292
*CONN
*I *153:A I *D sky130_fd_sc_hd__nor2_1
*I *154:B I *D sky130_fd_sc_hd__xnor2_1
*I *151:Y O *D sky130_fd_sc_hd__nor2_1
*CAP
1 *153:A 0
2 *154:B 0
3 *151:Y 0
4 *23:25 0.000813318
5 *23:12 0.000575253
6 *23:6 0.00138857
7 *23:12 *151:A 0
8 *23:12 *154:A 0.000400494
9 *23:12 *156:A2 0.00069336
10 *23:12 *24:8 0.000308045
11 *23:12 *35:8 2.4754e-05
12 *23:12 *42:20 1.80023e-05
13 *23:25 *147:A1 5.56356e-05
14 *23:25 *147:A2 4.27248e-05
15 *23:25 *151:A 0
16 *23:25 *159:B 0
17 *23:25 *37:53 0.000272311
18 *23:25 *39:27 5.50106e-05
19 *151:B *23:12 0.000222123
20 *20:10 *23:25 9.13115e-05
21 *20:14 *23:12 0
22 *20:14 *23:25 0
23 *21:10 *23:12 0.000169665
24 *21:16 *23:12 0.000598625
*RES
1 *151:Y *23:6 38 
2 *23:6 *23:12 34.4714 
3 *23:12 *154:B 23 
4 *23:6 *23:25 31.3643 
5 *23:25 *153:A 23 
*END

*D_NET *24 0.00615922
*CONN
*I *153:B I *D sky130_fd_sc_hd__nor2_1
*I *152:X O *D sky130_fd_sc_hd__and2_1
*CAP
1 *153:B 0
2 *152:X 0.00033764
3 *24:20 0.000956801
4 *24:16 0.00125127
5 *24:8 0.000632104
6 *24:8 *154:A 2.4754e-05
7 *24:8 *34:10 0.000390685
8 *24:8 *35:8 8.17686e-05
9 *24:16 *41:6 0.000148456
10 *24:16 *42:20 1.00084e-05
11 *24:20 *33:8 1.12863e-05
12 *24:20 *39:27 0.000723647
13 *149:B *24:8 0.000564588
14 *152:B *24:8 0.00024723
15 *20:14 *24:16 0
16 *20:14 *24:20 0.00047094
17 *23:12 *24:8 0.000308045
*RES
1 *152:X *24:8 49.5793 
2 *24:8 *24:16 35.2614 
3 *24:16 *24:20 38.0343 
4 *24:20 *153:B 23 
*END

*D_NET *25 0.0046812
*CONN
*I *159:B I *D sky130_fd_sc_hd__xor2_1
*I *157:A I *D sky130_fd_sc_hd__and2_1
*I *155:X O *D sky130_fd_sc_hd__or4_1
*CAP
1 *159:B 0.000311016
2 *157:A 0.000405314
3 *155:X 5.78732e-05
4 *25:10 0.00115508
5 *25:8 0.000496628
6 *157:A *157:B 0.000317081
7 *159:B *151:A 0
8 *159:B *33:20 1.47563e-05
9 *159:B *43:10 0.000657377
10 *25:8 *40:26 9.58714e-05
11 *25:10 *151:A 0
12 *25:10 *40:12 0
13 *25:10 *40:38 0
14 *25:10 *43:10 0.000892671
15 *21:8 *157:A 0.000193476
16 *21:31 *25:10 8.4047e-05
17 *23:25 *159:B 0
*RES
1 *155:X *25:8 39.0979 
2 *25:8 *25:10 11.7657 
3 *25:10 *157:A 46.7207 
4 *25:10 *159:B 46.9486 
*END

*D_NET *26 0.00111473
*CONN
*I *157:B I *D sky130_fd_sc_hd__and2_1
*I *156:Y O *D sky130_fd_sc_hd__o31ai_1
*CAP
1 *157:B 0.000194999
2 *156:Y 0.000108037
3 *26:8 0.000303036
4 *151:B *26:8 7.70737e-05
5 *157:A *157:B 0.000317081
6 *20:14 *26:8 0
7 *21:8 *157:B 2.82268e-05
8 *21:10 *26:8 8.62783e-05
*RES
1 *156:Y *26:8 40.2579 
2 *26:8 *157:B 42.4329 
*END

*D_NET *27 0.00294032
*CONN
*I *158:A I *D sky130_fd_sc_hd__clkbuf_1
*I *157:X O *D sky130_fd_sc_hd__and2_1
*CAP
1 *158:A 0
2 *157:X 7.54917e-05
3 *27:12 0.000269629
4 *27:8 0.00034512
5 *27:8 *148:A 2.64616e-05
6 *27:12 *29:12 3.92407e-05
7 *27:12 *29:18 0.00102979
8 *27:12 *37:16 0.00105535
9 *21:8 *27:8 9.92345e-05
*RES
1 *157:X *27:8 39.5743 
2 *27:8 *27:12 28.8786 
3 *27:12 *158:A 23 
*END

*D_NET *28 0.00609355
*CONN
*I *161:B I *D sky130_fd_sc_hd__nor2_1
*I *160:X O *D sky130_fd_sc_hd__and2_1
*CAP
1 *161:B 0
2 *160:X 0.000246845
3 *28:14 0.00073336
4 *28:8 0.000980204
5 *28:8 *29:26 0.000835271
6 *28:8 *31:8 0.000180218
7 *28:8 *38:18 0.00070745
8 *28:14 *31:14 0.000315618
9 *28:14 *35:14 0.000136486
10 *28:14 *36:8 5.3304e-05
11 *28:14 *44:12 0.00121675
12 *146:B *28:8 9.91798e-05
13 *146:B *28:14 7.67355e-05
14 *19:23 *28:14 0.000512127
*RES
1 *160:X *28:8 49.5793 
2 *28:8 *28:14 40.4164 
3 *28:14 *161:B 23 
*END

*D_NET *29 0.0113181
*CONN
*I *147:A2 I *D sky130_fd_sc_hd__o31a_1
*I *148:B I *D sky130_fd_sc_hd__or4_2
*I *160:B I *D sky130_fd_sc_hd__and2_1
*I *162:A I *D sky130_fd_sc_hd__clkbuf_1
*I *145:B I *D sky130_fd_sc_hd__nor2_1
*I *163:X O *D sky130_fd_sc_hd__buf_1
*CAP
1 *147:A2 0.000400302
2 *148:B 0
3 *160:B 0
4 *162:A 0.0001197
5 *145:B 9.42303e-05
6 *163:X 0.000157496
7 *29:30 0.000375912
8 *29:26 0.000864547
9 *29:18 0.00112293
10 *29:12 0.000719075
11 *29:10 0.000856503
12 *145:B *37:31 5.3304e-05
13 *145:B *40:26 0.000136743
14 *147:A2 *37:53 3.06971e-05
15 *147:A2 *39:27 1.46594e-05
16 *162:A *43:10 0.00021197
17 *29:10 *37:8 3.47776e-05
18 *29:10 *37:10 6.26356e-05
19 *29:12 *37:10 0.000404156
20 *29:12 *37:16 2.70366e-05
21 *29:12 *38:8 0.000737594
22 *29:12 *38:18 5.55911e-05
23 *29:18 *37:16 0.000234817
24 *29:18 *37:31 0.000102389
25 *29:18 *38:18 0.00150341
26 *29:26 *38:18 7.22308e-05
27 *29:30 *43:10 0.000339903
28 *146:B *29:30 3.3746e-05
29 *4:19 *29:10 5.50049e-05
30 *20:10 *147:A2 6.69525e-05
31 *22:14 *162:A 0.000219882
32 *22:14 *29:30 0.000262829
33 *23:25 *147:A2 4.27248e-05
34 *27:12 *29:12 3.92407e-05
35 *27:12 *29:18 0.00102979
36 *28:8 *29:26 0.000835271
*RES
1 *163:X *29:10 41.2314 
2 *29:10 *29:12 11.7657 
3 *29:12 *29:18 34.4714 
4 *29:18 *29:26 40.9993 
5 *29:26 *29:30 19.7229 
6 *29:30 *145:B 40.0714 
7 *29:30 *162:A 41.5836 
8 *29:18 *160:B 23 
9 *29:12 *148:B 38 
10 *29:10 *147:A2 44.525 
*END

*D_NET *30 0.00105114
*CONN
*I *171:A I *D sky130_fd_sc_hd__buf_2
*I *161:Y O *D sky130_fd_sc_hd__nor2_1
*CAP
1 *171:A 9.37145e-05
2 *161:Y 0.000221948
3 *30:10 0.000315663
4 *30:10 *32:10 3.56537e-05
5 *30:10 *36:8 2.93845e-05
6 *30:10 *44:12 0.000354778
*RES
1 *161:Y *30:10 43.3443 
2 *30:10 *171:A 39.5743 
*END

*D_NET *31 0.00462217
*CONN
*I *172:A I *D sky130_fd_sc_hd__buf_2
*I *146:Y O *D sky130_fd_sc_hd__xnor2_1
*CAP
1 *172:A 0
2 *146:Y 0.000222111
3 *31:14 0.000714907
4 *31:8 0.000937019
5 *31:14 *36:8 9.67842e-05
6 *31:14 *36:12 0.000938756
7 *31:14 *44:12 0.00121675
8 *28:8 *31:8 0.000180218
9 *28:14 *31:14 0.000315618
*RES
1 *146:Y *31:8 41.0036 
2 *31:8 *31:14 41.0171 
3 *31:14 *172:A 23 
*END

*D_NET *32 0.00125023
*CONN
*I *173:A I *D sky130_fd_sc_hd__buf_2
*I *150:X O *D sky130_fd_sc_hd__clkbuf_1
*CAP
1 *173:A 0
2 *150:X 0.000367939
3 *32:10 0.000367939
4 *32:10 *36:12 0.000465951
5 *32:10 *44:12 0
6 y[2] *32:10 1.27424e-05
7 *30:10 *32:10 3.56537e-05
*RES
1 *150:X *32:10 46.8657 
2 *32:10 *173:A 38 
*END

*D_NET *33 0.00596721
*CONN
*I *174:A I *D sky130_fd_sc_hd__buf_2
*I *153:Y O *D sky130_fd_sc_hd__nor2_1
*CAP
1 *174:A 0
2 *153:Y 0.000145183
3 *33:20 0.000806677
4 *33:14 0.00164068
5 *33:8 0.000979186
6 *33:20 *43:10 0.00106391
7 *33:20 *44:12 0
8 *159:B *33:20 1.47563e-05
9 *22:14 *33:20 0.00130553
10 *24:20 *33:8 1.12863e-05
*RES
1 *153:Y *33:8 39.9057 
2 *33:8 *33:14 40.6264 
3 *33:14 *33:20 38.7179 
4 *33:20 *174:A 23 
*END

*D_NET *34 0.00147802
*CONN
*I *175:A I *D sky130_fd_sc_hd__buf_2
*I *154:Y O *D sky130_fd_sc_hd__xnor2_1
*CAP
1 *175:A 0
2 *154:Y 0.000428213
3 *34:10 0.000428213
4 *34:10 *36:12 0.000166522
5 *34:10 *40:26 7.75329e-06
6 y[5] *34:10 4.08641e-05
7 *152:B *34:10 1.5769e-05
8 *24:8 *34:10 0.000390685
*RES
1 *154:Y *34:10 45.1671 
2 *34:10 *175:A 38 
*END

*D_NET *35 0.0031691
*CONN
*I *176:A I *D sky130_fd_sc_hd__buf_2
*I *158:X O *D sky130_fd_sc_hd__clkbuf_1
*CAP
1 *176:A 0
2 *158:X 0.000548967
3 *35:14 0.000249698
4 *35:8 0.000798665
5 *35:8 *154:A 0.000312348
6 *35:14 *36:12 0
7 *35:14 *43:10 0
8 *146:B *35:14 9.04083e-05
9 *149:B *35:8 1.08287e-05
10 *152:B *35:8 0.000261951
11 *22:8 *35:8 0.000653227
12 *23:12 *35:8 2.4754e-05
13 *24:8 *35:8 8.17686e-05
14 *28:14 *35:14 0.000136486
*RES
1 *158:X *35:8 37.4586 
2 *35:8 *35:14 35.4271 
3 *35:14 *176:A 23 
*END

*D_NET *36 0.00423454
*CONN
*I *177:A I *D sky130_fd_sc_hd__clkbuf_4
*I *159:X O *D sky130_fd_sc_hd__xor2_1
*CAP
1 *177:A 0
2 *159:X 0.000138431
3 *36:12 0.00104043
4 *36:8 0.00117887
5 *36:12 *40:26 0
6 *36:12 *44:12 6.7177e-06
7 y[3] *36:12 4.32584e-05
8 y[4] *36:12 8.62073e-06
9 y[5] *36:12 1.08015e-05
10 *19:23 *36:8 5.67058e-05
11 *28:14 *36:8 5.3304e-05
12 *30:10 *36:8 2.93845e-05
13 *31:14 *36:8 9.67842e-05
14 *31:14 *36:12 0.000938756
15 *32:10 *36:12 0.000465951
16 *34:10 *36:12 0.000166522
17 *35:14 *36:12 0
*RES
1 *159:X *36:8 41.0036 
2 *36:8 *36:12 43.6686 
3 *36:12 *177:A 23 
*END

*D_NET *37 0.00880457
*CONN
*I *147:A1 I *D sky130_fd_sc_hd__o31a_1
*I *148:A I *D sky130_fd_sc_hd__or4_2
*I *145:A I *D sky130_fd_sc_hd__nor2_1
*I *160:A I *D sky130_fd_sc_hd__and2_1
*I *164:X O *D sky130_fd_sc_hd__buf_1
*CAP
1 *147:A1 1.17588e-05
2 *148:A 7.52219e-05
3 *145:A 0
4 *160:A 0
5 *164:X 6.49759e-05
6 *37:53 0.000369124
7 *37:31 0.000814086
8 *37:16 0.00159337
9 *37:10 0.00134985
10 *37:8 0.000917681
11 *37:31 *156:A2 0
12 *37:31 *38:18 0.000682075
13 *37:31 *40:12 1.14452e-05
14 *37:31 *40:26 0.00019263
15 *37:31 *42:12 0.000117302
16 *37:53 *39:27 2.76611e-06
17 *145:B *37:31 5.3304e-05
18 *147:A2 *37:53 3.06971e-05
19 *152:B *37:31 2.29192e-05
20 *20:10 *147:A1 5.79559e-05
21 *21:31 *37:31 0.00016184
22 *23:25 *147:A1 5.56356e-05
23 *23:25 *37:53 0.000272311
24 *27:8 *148:A 2.64616e-05
25 *27:12 *37:16 0.00105535
26 *29:10 *37:8 3.47776e-05
27 *29:10 *37:10 6.26356e-05
28 *29:12 *37:10 0.000404156
29 *29:12 *37:16 2.70366e-05
30 *29:18 *37:16 0.000234817
31 *29:18 *37:31 0.000102389
*RES
1 *164:X *37:8 39.2014 
2 *37:8 *37:10 12.1179 
3 *37:10 *37:16 33.9743 
4 *37:16 *160:A 23 
5 *37:16 *37:31 47.8557 
6 *37:31 *145:A 23 
7 *37:10 *148:A 39.0979 
8 *37:8 *37:53 35.2821 
9 *37:53 *147:A1 38.6214 
*END

*D_NET *38 0.00764493
*CONN
*I *147:A3 I *D sky130_fd_sc_hd__o31a_1
*I *148:C I *D sky130_fd_sc_hd__or4_2
*I *146:A I *D sky130_fd_sc_hd__xnor2_1
*I *165:X O *D sky130_fd_sc_hd__buf_1
*CAP
1 *147:A3 0
2 *148:C 0
3 *146:A 0
4 *165:X 0
5 *38:38 0.000573957
6 *38:18 0.000957916
7 *38:8 0.00128606
8 *38:4 0.000902105
9 *38:8 *39:12 5.561e-05
10 *6:17 *38:8 0
11 *7:17 *38:18 0
12 *8:17 *38:18 0
13 *20:14 *38:38 0.000110922
14 *28:8 *38:18 0.00070745
15 *29:12 *38:8 0.000737594
16 *29:12 *38:18 5.55911e-05
17 *29:18 *38:18 0.00150341
18 *29:26 *38:18 7.22308e-05
19 *37:31 *38:18 0.000682075
*RES
1 *165:X *38:4 23 
2 *38:4 *38:8 24.6529 
3 *38:8 *38:18 44.5179 
4 *38:18 *146:A 23 
5 *38:8 *148:C 38 
6 *38:4 *38:38 36.9393 
7 *38:38 *147:A3 23 
*END

*D_NET *39 0.0031701
*CONN
*I *147:B1 I *D sky130_fd_sc_hd__o31a_1
*I *148:D I *D sky130_fd_sc_hd__or4_2
*I *166:X O *D sky130_fd_sc_hd__clkbuf_1
*CAP
1 *147:B1 0
2 *148:D 0
3 *166:X 0
4 *39:27 0.000649167
5 *39:12 0.000162028
6 *39:4 0.000811195
7 *147:A2 *39:27 1.46594e-05
8 *6:17 *39:12 6.17437e-06
9 *20:10 *39:27 1.32314e-05
10 *20:14 *39:27 0.00067661
11 *23:25 *39:27 5.50106e-05
12 *24:20 *39:27 0.000723647
13 *37:53 *39:27 2.76611e-06
14 *38:8 *39:12 5.561e-05
*RES
1 *166:X *39:4 23 
2 *39:4 *39:12 32.6514 
3 *39:12 *148:D 23 
4 *39:4 *39:27 44.7071 
5 *39:27 *147:B1 23 
*END

*D_NET *40 0.00622714
*CONN
*I *151:A I *D sky130_fd_sc_hd__nor2_1
*I *156:A1 I *D sky130_fd_sc_hd__o31ai_1
*I *155:A I *D sky130_fd_sc_hd__or4_1
*I *152:A I *D sky130_fd_sc_hd__and2_1
*I *167:X O *D sky130_fd_sc_hd__buf_1
*CAP
1 *151:A 0.000522977
2 *156:A1 9.37445e-05
3 *155:A 0
4 *152:A 0
5 *167:X 0.000984261
6 *40:38 0.000806501
7 *40:26 0.000724389
8 *40:12 0.000992075
9 *40:8 0.00144173
10 *40:12 *156:A2 0
11 *40:38 *156:A2 0
12 y[5] *40:26 0.00012758
13 *145:B *40:26 0.000136743
14 *151:B *151:A 5.84916e-05
15 *159:B *151:A 0
16 *21:31 *40:12 7.75329e-06
17 *21:31 *40:26 2.32004e-05
18 *23:12 *151:A 0
19 *23:25 *151:A 0
20 *25:8 *40:26 9.58714e-05
21 *25:10 *151:A 0
22 *25:10 *40:12 0
23 *25:10 *40:38 0
24 *34:10 *40:26 7.75329e-06
25 *36:12 *40:26 0
26 *37:31 *40:12 1.14452e-05
27 *37:31 *40:26 0.00019263
*RES
1 *167:X *40:8 49.1029 
2 *40:8 *40:12 19.7229 
3 *40:12 *40:26 42.5943 
4 *40:26 *152:A 23 
5 *40:12 *155:A 23 
6 *40:8 *40:38 3.66643 
7 *40:38 *156:A1 39.5743 
8 *40:38 *151:A 47.6321 
*END

*D_NET *41 0.00443849
*CONN
*I *155:B I *D sky130_fd_sc_hd__or4_1
*I *156:A2 I *D sky130_fd_sc_hd__o31ai_1
*I *154:A I *D sky130_fd_sc_hd__xnor2_1
*I *168:X O *D sky130_fd_sc_hd__buf_1
*CAP
1 *155:B 3.65899e-05
2 *156:A2 0.000371406
3 *154:A 0.00017355
4 *168:X 0.000732329
5 *41:8 0.000544956
6 *41:6 0.000768918
7 *154:A *42:12 7.21237e-05
8 *155:B *42:20 2.93845e-05
9 *156:A2 *42:12 3.0647e-05
10 *41:6 *42:20 9.91701e-05
11 *23:12 *154:A 0.000400494
12 *23:12 *156:A2 0.00069336
13 *24:8 *154:A 2.4754e-05
14 *24:16 *41:6 0.000148456
15 *35:8 *154:A 0.000312348
16 *37:31 *156:A2 0
17 *40:12 *156:A2 0
18 *40:38 *156:A2 0
*RES
1 *168:X *41:6 32.1971 
2 *41:6 *41:8 15 
3 *41:8 *154:A 43.7379 
4 *41:8 *156:A2 47.6839 
5 *41:6 *155:B 23.6214 
*END

*D_NET *42 0.00462042
*CONN
*I *155:C I *D sky130_fd_sc_hd__or4_1
*I *156:B1 I *D sky130_fd_sc_hd__o31ai_1
*I *169:X O *D sky130_fd_sc_hd__clkbuf_1
*CAP
1 *155:C 0
2 *156:B1 0
3 *169:X 0.000625098
4 *42:20 0.000465525
5 *42:12 0.000893829
6 *42:8 0.0010534
7 *42:8 *43:6 0.000805018
8 *42:12 *43:10 0
9 *154:A *42:12 7.21237e-05
10 *155:B *42:20 2.93845e-05
11 *156:A2 *42:12 3.0647e-05
12 *20:14 *42:20 0
13 *21:16 *42:20 0.000379064
14 *21:31 *42:20 2.18409e-05
15 *23:12 *42:20 1.80023e-05
16 *24:16 *42:20 1.00084e-05
17 *37:31 *42:12 0.000117302
18 *41:6 *42:20 9.91701e-05
*RES
1 *169:X *42:8 48.15 
2 *42:8 *42:12 22.54 
3 *42:12 *42:20 41.6 
4 *42:20 *156:B1 23 
5 *42:12 *155:C 23 
*END

*D_NET *43 0.00682671
*CONN
*I *159:A I *D sky130_fd_sc_hd__xor2_1
*I *170:X O *D sky130_fd_sc_hd__buf_1
*CAP
1 *159:A 0
2 *170:X 0.000487831
3 *43:10 0.000781078
4 *43:6 0.00126891
5 *146:B *43:10 2.36844e-05
6 *152:B *43:10 8.72173e-05
7 *159:B *43:10 0.000657377
8 *162:A *43:10 0.00021197
9 *21:31 *43:10 8.74165e-05
10 *22:14 *43:10 0.000119725
11 *25:10 *43:10 0.000892671
12 *29:30 *43:10 0.000339903
13 *33:20 *43:10 0.00106391
14 *35:14 *43:10 0
15 *42:8 *43:6 0.000805018
16 *42:12 *43:10 0
*RES
1 *170:X *43:6 35.0557 
2 *43:6 *43:10 42.6121 
3 *43:10 *159:A 38 
*END

*D_NET *44 0.00414194
*CONN
*I *178:A I *D sky130_fd_sc_hd__buf_2
*I *162:X O *D sky130_fd_sc_hd__clkbuf_1
*CAP
1 *178:A 0
2 *162:X 0.00013334
3 *44:12 0.00054013
4 *44:8 0.00067347
5 *22:14 *44:12 0
6 *28:14 *44:12 0.00121675
7 *30:10 *44:12 0.000354778
8 *31:14 *44:12 0.00121675
9 *32:10 *44:12 0
10 *33:20 *44:12 0
11 *36:12 *44:12 6.7177e-06
*RES
1 *162:X *44:8 39.5743 
2 *44:8 *44:12 36.6257 
3 *44:12 *178:A 23 
*END
