*SPEF "ieee 1481-1999"
*DESIGN "zero_to_five_counter"
*DATE "19:22:08 Thursday May 22, 2025"
*VENDOR "The OpenROAD Project"
*PROGRAM "OpenROAD"
*VERSION "b16bda7e82721d10566ff7e2b68f1ff0be9f9e38"
*DESIGN_FLOW "NAME_SCOPE LOCAL" "PIN_CAP NONE"
*DIVIDER /
*DELIMITER :
*BUS_DELIMITER []
*T_UNIT 1 NS
*C_UNIT 1 PF
*R_UNIT 1 OHM
*L_UNIT 1 HENRY

*NAME_MAP
*3 clk
*4 count[0]
*5 count[1]
*6 count[2]
*7 reset
*8 _000_
*9 _001_
*10 _002_
*11 _003_
*12 _004_
*13 _005_
*14 _006_
*15 _007_
*16 _008_
*17 _009_
*18 _010_
*19 _011_
*20 _012_
*21 _013_
*22 _014_
*23 _015_
*24 _016_
*25 _017_
*26 _018_
*27 _019_
*28 _020_
*29 _021_
*30 _022_
*31 _023_
*32 _024_
*33 _025_
*34 _026_
*35 _027_
*36 _028_
*37 _029_
*38 _030_
*39 _031_
*40 _032_
*41 _033_
*42 _034_
*43 _035_
*44 _036_
*45 _037_
*46 _038_
*47 _039_
*48 _040_
*49 _041_
*50 _042_
*51 _043_
*52 _044_
*53 _045_
*54 _046_
*55 _047_
*56 _048_
*57 _049_
*58 _050_
*59 _051_
*60 _052_
*61 _053_
*62 _054_
*63 _055_
*64 _056_
*65 _057_
*66 _058_
*67 _059_
*68 _060_
*69 _061_
*70 _062_
*71 _063_
*72 _064_
*73 _065_
*74 _066_
*75 _067_
*76 _068_
*77 _069_
*78 _070_
*79 _071_
*80 _072_
*81 _073_
*82 _074_
*83 _075_
*84 _076_
*85 _077_
*86 _078_
*87 _079_
*88 _080_
*89 _081_
*90 _082_
*91 _083_
*92 _084_
*93 _085_
*94 _086_
*95 _087_
*96 _088_
*97 _089_
*98 _090_
*99 _091_
*100 _092_
*101 _093_
*102 _094_
*103 _095_
*104 _096_
*105 _097_
*106 _098_
*107 _099_
*108 _100_
*109 _101_
*110 _102_
*111 _103_
*112 _104_
*113 _105_
*114 _106_
*115 _107_
*116 _108_
*117 _109_
*118 _110_
*119 _111_
*120 _112_
*121 _113_
*122 _114_
*123 _115_
*124 _116_
*125 _117_
*126 _118_
*127 _119_
*128 _120_
*129 _121_
*130 _122_
*131 _123_
*132 _124_
*133 _125_
*134 _126_
*135 _127_
*136 _128_
*137 _129_
*138 _130_
*139 _131_
*140 _132_
*141 _133_
*142 _134_
*143 _135_
*144 _136_
*145 _137_
*146 _138_
*147 _139_
*148 _140_
*149 _141_
*150 _142_
*151 _143_
*152 _144_
*153 _145_
*154 _146_
*155 _147_
*156 _148_
*157 _149_
*158 _150_
*159 _151_
*160 _152_
*161 _153_
*162 _154_
*163 _155_
*164 _156_
*165 _157_
*166 _158_
*167 _159_
*168 _160_
*169 _161_
*170 _162_
*171 _163_
*172 clknet_0_clk
*173 clknet_2_0__leaf_clk
*174 clknet_2_1__leaf_clk
*175 clknet_2_2__leaf_clk
*176 clknet_2_3__leaf_clk
*177 net1
*178 net2
*179 net3
*180 one_second_counter\[0\]
*181 one_second_counter\[10\]
*182 one_second_counter\[11\]
*183 one_second_counter\[12\]
*184 one_second_counter\[13\]
*185 one_second_counter\[14\]
*186 one_second_counter\[15\]
*187 one_second_counter\[16\]
*188 one_second_counter\[17\]
*189 one_second_counter\[18\]
*190 one_second_counter\[19\]
*191 one_second_counter\[1\]
*192 one_second_counter\[20\]
*193 one_second_counter\[21\]
*194 one_second_counter\[22\]
*195 one_second_counter\[23\]
*196 one_second_counter\[24\]
*197 one_second_counter\[25\]
*198 one_second_counter\[26\]
*199 one_second_counter\[2\]
*200 one_second_counter\[3\]
*201 one_second_counter\[4\]
*202 one_second_counter\[5\]
*203 one_second_counter\[6\]
*204 one_second_counter\[7\]
*205 one_second_counter\[8\]
*206 one_second_counter\[9\]
*207 ANTENNA_1
*208 ANTENNA_2
*209 ANTENNA_3
*210 FILLER_0_0_108
*211 FILLER_0_0_113
*212 FILLER_0_0_24
*213 FILLER_0_0_29
*214 FILLER_0_0_41
*215 FILLER_0_0_53
*216 FILLER_0_0_57
*217 FILLER_0_0_64
*218 FILLER_0_0_77
*219 FILLER_0_0_83
*220 FILLER_0_0_85
*221 FILLER_0_0_96
*222 FILLER_0_10_105
*223 FILLER_0_10_120
*224 FILLER_0_10_124
*225 FILLER_0_10_27
*226 FILLER_0_10_3
*227 FILLER_0_10_35
*228 FILLER_0_10_43
*229 FILLER_0_10_55
*230 FILLER_0_10_63
*231 FILLER_0_10_67
*232 FILLER_0_10_82
*233 FILLER_0_11_105
*234 FILLER_0_11_111
*235 FILLER_0_11_12
*236 FILLER_0_11_123
*237 FILLER_0_11_18
*238 FILLER_0_11_3
*239 FILLER_0_11_55
*240 FILLER_0_11_81
*241 FILLER_0_11_93
*242 FILLER_0_12_120
*243 FILLER_0_12_124
*244 FILLER_0_12_15
*245 FILLER_0_12_27
*246 FILLER_0_12_29
*247 FILLER_0_12_3
*248 FILLER_0_12_52
*249 FILLER_0_12_66
*250 FILLER_0_12_73
*251 FILLER_0_12_82
*252 FILLER_0_12_88
*253 FILLER_0_12_96
*254 FILLER_0_13_113
*255 FILLER_0_13_121
*256 FILLER_0_13_18
*257 FILLER_0_13_30
*258 FILLER_0_13_34
*259 FILLER_0_13_57
*260 FILLER_0_13_6
*261 FILLER_0_14_117
*262 FILLER_0_14_15
*263 FILLER_0_14_27
*264 FILLER_0_14_29
*265 FILLER_0_14_3
*266 FILLER_0_14_41
*267 FILLER_0_14_53
*268 FILLER_0_14_61
*269 FILLER_0_14_72
*270 FILLER_0_14_85
*271 FILLER_0_14_89
*272 FILLER_0_14_95
*273 FILLER_0_15_111
*274 FILLER_0_15_119
*275 FILLER_0_15_18
*276 FILLER_0_15_30
*277 FILLER_0_15_36
*278 FILLER_0_15_44
*279 FILLER_0_15_51
*280 FILLER_0_15_55
*281 FILLER_0_15_57
*282 FILLER_0_15_6
*283 FILLER_0_15_69
*284 FILLER_0_15_75
*285 FILLER_0_15_87
*286 FILLER_0_15_99
*287 FILLER_0_16_107
*288 FILLER_0_16_119
*289 FILLER_0_16_15
*290 FILLER_0_16_27
*291 FILLER_0_16_29
*292 FILLER_0_16_3
*293 FILLER_0_16_45
*294 FILLER_0_16_56
*295 FILLER_0_16_60
*296 FILLER_0_16_81
*297 FILLER_0_16_88
*298 FILLER_0_16_95
*299 FILLER_0_17_101
*300 FILLER_0_17_108
*301 FILLER_0_17_113
*302 FILLER_0_17_15
*303 FILLER_0_17_27
*304 FILLER_0_17_3
*305 FILLER_0_17_39
*306 FILLER_0_17_43
*307 FILLER_0_17_52
*308 FILLER_0_17_60
*309 FILLER_0_17_68
*310 FILLER_0_17_89
*311 FILLER_0_18_109
*312 FILLER_0_18_118
*313 FILLER_0_18_14
*314 FILLER_0_18_26
*315 FILLER_0_18_29
*316 FILLER_0_18_3
*317 FILLER_0_18_41
*318 FILLER_0_18_53
*319 FILLER_0_18_63
*320 FILLER_0_18_7
*321 FILLER_0_18_75
*322 FILLER_0_18_82
*323 FILLER_0_18_85
*324 FILLER_0_18_97
*325 FILLER_0_19_105
*326 FILLER_0_19_111
*327 FILLER_0_19_113
*328 FILLER_0_19_20
*329 FILLER_0_19_32
*330 FILLER_0_19_40
*331 FILLER_0_19_47
*332 FILLER_0_19_55
*333 FILLER_0_19_57
*334 FILLER_0_19_69
*335 FILLER_0_19_81
*336 FILLER_0_19_93
*337 FILLER_0_1_113
*338 FILLER_0_1_121
*339 FILLER_0_1_15
*340 FILLER_0_1_3
*341 FILLER_0_1_44
*342 FILLER_0_1_57
*343 FILLER_0_1_69
*344 FILLER_0_1_77
*345 FILLER_0_1_89
*346 FILLER_0_20_102
*347 FILLER_0_20_11
*348 FILLER_0_20_110
*349 FILLER_0_20_122
*350 FILLER_0_20_17
*351 FILLER_0_20_24
*352 FILLER_0_20_29
*353 FILLER_0_20_3
*354 FILLER_0_20_42
*355 FILLER_0_20_56
*356 FILLER_0_20_64
*357 FILLER_0_20_77
*358 FILLER_0_20_81
*359 FILLER_0_20_85
*360 FILLER_0_20_98
*361 FILLER_0_21_11
*362 FILLER_0_21_110
*363 FILLER_0_21_113
*364 FILLER_0_21_120
*365 FILLER_0_21_124
*366 FILLER_0_21_18
*367 FILLER_0_21_3
*368 FILLER_0_21_30
*369 FILLER_0_21_42
*370 FILLER_0_21_54
*371 FILLER_0_21_80
*372 FILLER_0_22_10
*373 FILLER_0_22_113
*374 FILLER_0_22_17
*375 FILLER_0_22_25
*376 FILLER_0_22_29
*377 FILLER_0_22_3
*378 FILLER_0_22_37
*379 FILLER_0_22_43
*380 FILLER_0_22_47
*381 FILLER_0_22_51
*382 FILLER_0_22_82
*383 FILLER_0_22_90
*384 FILLER_0_23_111
*385 FILLER_0_23_113
*386 FILLER_0_23_13
*387 FILLER_0_23_25
*388 FILLER_0_23_37
*389 FILLER_0_23_43
*390 FILLER_0_23_52
*391 FILLER_0_23_6
*392 FILLER_0_24_105
*393 FILLER_0_24_114
*394 FILLER_0_24_122
*395 FILLER_0_24_15
*396 FILLER_0_24_27
*397 FILLER_0_24_29
*398 FILLER_0_24_3
*399 FILLER_0_24_37
*400 FILLER_0_24_82
*401 FILLER_0_25_113
*402 FILLER_0_25_15
*403 FILLER_0_25_3
*404 FILLER_0_25_32
*405 FILLER_0_25_44
*406 FILLER_0_25_57
*407 FILLER_0_25_65
*408 FILLER_0_25_69
*409 FILLER_0_25_76
*410 FILLER_0_25_88
*411 FILLER_0_26_102
*412 FILLER_0_26_107
*413 FILLER_0_26_111
*414 FILLER_0_26_115
*415 FILLER_0_26_123
*416 FILLER_0_26_18
*417 FILLER_0_26_36
*418 FILLER_0_26_59
*419 FILLER_0_26_6
*420 FILLER_0_26_71
*421 FILLER_0_26_83
*422 FILLER_0_26_85
*423 FILLER_0_26_93
*424 FILLER_0_27_104
*425 FILLER_0_27_15
*426 FILLER_0_27_27
*427 FILLER_0_27_3
*428 FILLER_0_27_35
*429 FILLER_0_27_57
*430 FILLER_0_27_65
*431 FILLER_0_27_73
*432 FILLER_0_27_85
*433 FILLER_0_27_97
*434 FILLER_0_28_107
*435 FILLER_0_28_114
*436 FILLER_0_28_23
*437 FILLER_0_28_27
*438 FILLER_0_28_29
*439 FILLER_0_28_62
*440 FILLER_0_28_8
*441 FILLER_0_28_94
*442 FILLER_0_29_11
*443 FILLER_0_29_111
*444 FILLER_0_29_113
*445 FILLER_0_29_15
*446 FILLER_0_29_27
*447 FILLER_0_29_3
*448 FILLER_0_29_39
*449 FILLER_0_29_51
*450 FILLER_0_29_55
*451 FILLER_0_29_57
*452 FILLER_0_29_70
*453 FILLER_0_29_99
*454 FILLER_0_2_105
*455 FILLER_0_2_117
*456 FILLER_0_2_15
*457 FILLER_0_2_26
*458 FILLER_0_2_3
*459 FILLER_0_2_32
*460 FILLER_0_2_44
*461 FILLER_0_2_53
*462 FILLER_0_2_65
*463 FILLER_0_2_71
*464 FILLER_0_2_77
*465 FILLER_0_30_100
*466 FILLER_0_30_112
*467 FILLER_0_30_118
*468 FILLER_0_30_16
*469 FILLER_0_30_23
*470 FILLER_0_30_27
*471 FILLER_0_30_29
*472 FILLER_0_30_3
*473 FILLER_0_30_44
*474 FILLER_0_30_56
*475 FILLER_0_30_68
*476 FILLER_0_30_80
*477 FILLER_0_30_85
*478 FILLER_0_30_93
*479 FILLER_0_31_109
*480 FILLER_0_31_11
*481 FILLER_0_31_116
*482 FILLER_0_31_124
*483 FILLER_0_31_3
*484 FILLER_0_31_52
*485 FILLER_0_31_57
*486 FILLER_0_31_69
*487 FILLER_0_31_81
*488 FILLER_0_31_85
*489 FILLER_0_31_97
*490 FILLER_0_3_105
*491 FILLER_0_3_110
*492 FILLER_0_3_113
*493 FILLER_0_3_121
*494 FILLER_0_3_19
*495 FILLER_0_3_3
*496 FILLER_0_3_31
*497 FILLER_0_3_37
*498 FILLER_0_3_41
*499 FILLER_0_3_53
*500 FILLER_0_3_57
*501 FILLER_0_3_69
*502 FILLER_0_3_7
*503 FILLER_0_3_81
*504 FILLER_0_3_93
*505 FILLER_0_4_101
*506 FILLER_0_4_11
*507 FILLER_0_4_122
*508 FILLER_0_4_23
*509 FILLER_0_4_27
*510 FILLER_0_4_29
*511 FILLER_0_4_3
*512 FILLER_0_4_35
*513 FILLER_0_4_43
*514 FILLER_0_4_49
*515 FILLER_0_4_55
*516 FILLER_0_4_65
*517 FILLER_0_4_77
*518 FILLER_0_4_83
*519 FILLER_0_4_85
*520 FILLER_0_4_97
*521 FILLER_0_5_104
*522 FILLER_0_5_118
*523 FILLER_0_5_123
*524 FILLER_0_5_31
*525 FILLER_0_5_46
*526 FILLER_0_5_54
*527 FILLER_0_5_6
*528 FILLER_0_5_80
*529 FILLER_0_5_92
*530 FILLER_0_6_109
*531 FILLER_0_6_121
*532 FILLER_0_6_26
*533 FILLER_0_6_29
*534 FILLER_0_6_60
*535 FILLER_0_6_72
*536 FILLER_0_6_85
*537 FILLER_0_6_97
*538 FILLER_0_7_107
*539 FILLER_0_7_111
*540 FILLER_0_7_118
*541 FILLER_0_7_124
*542 FILLER_0_7_43
*543 FILLER_0_7_55
*544 FILLER_0_7_57
*545 FILLER_0_7_69
*546 FILLER_0_7_75
*547 FILLER_0_7_83
*548 FILLER_0_7_95
*549 FILLER_0_8_105
*550 FILLER_0_8_117
*551 FILLER_0_8_13
*552 FILLER_0_8_25
*553 FILLER_0_8_29
*554 FILLER_0_8_3
*555 FILLER_0_8_37
*556 FILLER_0_8_63
*557 FILLER_0_8_72
*558 FILLER_0_8_9
*559 FILLER_0_8_99
*560 FILLER_0_9_101
*561 FILLER_0_9_109
*562 FILLER_0_9_113
*563 FILLER_0_9_3
*564 FILLER_0_9_36
*565 FILLER_0_9_48
*566 FILLER_0_9_57
*567 FILLER_0_9_65
*568 FILLER_0_9_71
*569 FILLER_0_9_77
*570 PHY_EDGE_ROW_0_Left_32
*571 PHY_EDGE_ROW_0_Right_0
*572 PHY_EDGE_ROW_10_Left_42
*573 PHY_EDGE_ROW_10_Right_10
*574 PHY_EDGE_ROW_11_Left_43
*575 PHY_EDGE_ROW_11_Right_11
*576 PHY_EDGE_ROW_12_Left_44
*577 PHY_EDGE_ROW_12_Right_12
*578 PHY_EDGE_ROW_13_Left_45
*579 PHY_EDGE_ROW_13_Right_13
*580 PHY_EDGE_ROW_14_Left_46
*581 PHY_EDGE_ROW_14_Right_14
*582 PHY_EDGE_ROW_15_Left_47
*583 PHY_EDGE_ROW_15_Right_15
*584 PHY_EDGE_ROW_16_Left_48
*585 PHY_EDGE_ROW_16_Right_16
*586 PHY_EDGE_ROW_17_Left_49
*587 PHY_EDGE_ROW_17_Right_17
*588 PHY_EDGE_ROW_18_Left_50
*589 PHY_EDGE_ROW_18_Right_18
*590 PHY_EDGE_ROW_19_Left_51
*591 PHY_EDGE_ROW_19_Right_19
*592 PHY_EDGE_ROW_1_Left_33
*593 PHY_EDGE_ROW_1_Right_1
*594 PHY_EDGE_ROW_20_Left_52
*595 PHY_EDGE_ROW_20_Right_20
*596 PHY_EDGE_ROW_21_Left_53
*597 PHY_EDGE_ROW_21_Right_21
*598 PHY_EDGE_ROW_22_Left_54
*599 PHY_EDGE_ROW_22_Right_22
*600 PHY_EDGE_ROW_23_Left_55
*601 PHY_EDGE_ROW_23_Right_23
*602 PHY_EDGE_ROW_24_Left_56
*603 PHY_EDGE_ROW_24_Right_24
*604 PHY_EDGE_ROW_25_Left_57
*605 PHY_EDGE_ROW_25_Right_25
*606 PHY_EDGE_ROW_26_Left_58
*607 PHY_EDGE_ROW_26_Right_26
*608 PHY_EDGE_ROW_27_Left_59
*609 PHY_EDGE_ROW_27_Right_27
*610 PHY_EDGE_ROW_28_Left_60
*611 PHY_EDGE_ROW_28_Right_28
*612 PHY_EDGE_ROW_29_Left_61
*613 PHY_EDGE_ROW_29_Right_29
*614 PHY_EDGE_ROW_2_Left_34
*615 PHY_EDGE_ROW_2_Right_2
*616 PHY_EDGE_ROW_30_Left_62
*617 PHY_EDGE_ROW_30_Right_30
*618 PHY_EDGE_ROW_31_Left_63
*619 PHY_EDGE_ROW_31_Right_31
*620 PHY_EDGE_ROW_3_Left_35
*621 PHY_EDGE_ROW_3_Right_3
*622 PHY_EDGE_ROW_4_Left_36
*623 PHY_EDGE_ROW_4_Right_4
*624 PHY_EDGE_ROW_5_Left_37
*625 PHY_EDGE_ROW_5_Right_5
*626 PHY_EDGE_ROW_6_Left_38
*627 PHY_EDGE_ROW_6_Right_6
*628 PHY_EDGE_ROW_7_Left_39
*629 PHY_EDGE_ROW_7_Right_7
*630 PHY_EDGE_ROW_8_Left_40
*631 PHY_EDGE_ROW_8_Right_8
*632 PHY_EDGE_ROW_9_Left_41
*633 PHY_EDGE_ROW_9_Right_9
*634 TAP_TAPCELL_ROW_0_64
*635 TAP_TAPCELL_ROW_0_65
*636 TAP_TAPCELL_ROW_0_66
*637 TAP_TAPCELL_ROW_0_67
*638 TAP_TAPCELL_ROW_10_86
*639 TAP_TAPCELL_ROW_10_87
*640 TAP_TAPCELL_ROW_11_88
*641 TAP_TAPCELL_ROW_11_89
*642 TAP_TAPCELL_ROW_12_90
*643 TAP_TAPCELL_ROW_12_91
*644 TAP_TAPCELL_ROW_13_92
*645 TAP_TAPCELL_ROW_13_93
*646 TAP_TAPCELL_ROW_14_94
*647 TAP_TAPCELL_ROW_14_95
*648 TAP_TAPCELL_ROW_15_96
*649 TAP_TAPCELL_ROW_15_97
*650 TAP_TAPCELL_ROW_16_98
*651 TAP_TAPCELL_ROW_16_99
*652 TAP_TAPCELL_ROW_17_100
*653 TAP_TAPCELL_ROW_17_101
*654 TAP_TAPCELL_ROW_18_102
*655 TAP_TAPCELL_ROW_18_103
*656 TAP_TAPCELL_ROW_19_104
*657 TAP_TAPCELL_ROW_19_105
*658 TAP_TAPCELL_ROW_1_68
*659 TAP_TAPCELL_ROW_1_69
*660 TAP_TAPCELL_ROW_20_106
*661 TAP_TAPCELL_ROW_20_107
*662 TAP_TAPCELL_ROW_21_108
*663 TAP_TAPCELL_ROW_21_109
*664 TAP_TAPCELL_ROW_22_110
*665 TAP_TAPCELL_ROW_22_111
*666 TAP_TAPCELL_ROW_23_112
*667 TAP_TAPCELL_ROW_23_113
*668 TAP_TAPCELL_ROW_24_114
*669 TAP_TAPCELL_ROW_24_115
*670 TAP_TAPCELL_ROW_25_116
*671 TAP_TAPCELL_ROW_25_117
*672 TAP_TAPCELL_ROW_26_118
*673 TAP_TAPCELL_ROW_26_119
*674 TAP_TAPCELL_ROW_27_120
*675 TAP_TAPCELL_ROW_27_121
*676 TAP_TAPCELL_ROW_28_122
*677 TAP_TAPCELL_ROW_28_123
*678 TAP_TAPCELL_ROW_29_124
*679 TAP_TAPCELL_ROW_29_125
*680 TAP_TAPCELL_ROW_2_70
*681 TAP_TAPCELL_ROW_2_71
*682 TAP_TAPCELL_ROW_30_126
*683 TAP_TAPCELL_ROW_30_127
*684 TAP_TAPCELL_ROW_31_128
*685 TAP_TAPCELL_ROW_31_129
*686 TAP_TAPCELL_ROW_31_130
*687 TAP_TAPCELL_ROW_31_131
*688 TAP_TAPCELL_ROW_3_72
*689 TAP_TAPCELL_ROW_3_73
*690 TAP_TAPCELL_ROW_4_74
*691 TAP_TAPCELL_ROW_4_75
*692 TAP_TAPCELL_ROW_5_76
*693 TAP_TAPCELL_ROW_5_77
*694 TAP_TAPCELL_ROW_6_78
*695 TAP_TAPCELL_ROW_6_79
*696 TAP_TAPCELL_ROW_7_80
*697 TAP_TAPCELL_ROW_7_81
*698 TAP_TAPCELL_ROW_8_82
*699 TAP_TAPCELL_ROW_8_83
*700 TAP_TAPCELL_ROW_9_84
*701 TAP_TAPCELL_ROW_9_85
*702 _164_
*703 _165_
*704 _166_
*705 _167_
*706 _168_
*707 _169_
*708 _170_
*709 _171_
*710 _172_
*711 _173_
*712 _174_
*713 _175_
*714 _176_
*715 _177_
*716 _178_
*717 _179_
*718 _180_
*719 _181_
*720 _182_
*721 _183_
*722 _184_
*723 _185_
*724 _186_
*725 _187_
*726 _188_
*727 _189_
*728 _190_
*729 _191_
*730 _192_
*731 _193_
*732 _194_
*733 _195_
*734 _196_
*735 _197_
*736 _198_
*737 _199_
*738 _200_
*739 _201_
*740 _202_
*741 _203_
*742 _204_
*743 _205_
*744 _206_
*745 _207_
*746 _208_
*747 _209_
*748 _210_
*749 _211_
*750 _212_
*751 _213_
*752 _214_
*753 _215_
*754 _216_
*755 _217_
*756 _218_
*757 _219_
*758 _220_
*759 _221_
*760 _222_
*761 _223_
*762 _224_
*763 _225_
*764 _226_
*765 _227_
*766 _228_
*767 _229_
*768 _230_
*769 _231_
*770 _232_
*771 _233_
*772 _234_
*773 _235_
*774 _236_
*775 _237_
*776 _238_
*777 _239_
*778 _240_
*779 _241_
*780 _242_
*781 _243_
*782 _244_
*783 _245_
*784 _246_
*785 _247_
*786 _248_
*787 _249_
*788 _250_
*789 _251_
*790 _252_
*791 _253_
*792 _254_
*793 _255_
*794 _256_
*795 _257_
*796 _258_
*797 _259_
*798 _260_
*799 _261_
*800 _262_
*801 _263_
*802 _264_
*803 _265_
*804 _266_
*805 _267_
*806 _268_
*807 _269_
*808 _270_
*809 _271_
*810 _272_
*811 _273_
*812 _274_
*813 _275_
*814 _276_
*815 _277_
*816 _278_
*817 _279_
*818 _280_
*819 _281_
*820 _282_
*821 _283_
*822 _284_
*823 _285_
*824 _286_
*825 _287_
*826 _288_
*827 _289_
*828 _290_
*829 _291_
*830 _292_
*831 _293_
*832 _294_
*833 _295_
*834 _296_
*835 _297_
*836 _298_
*837 _299_
*838 _300_
*839 _301_
*840 _302_
*841 _303_
*842 _304_
*843 _305_
*844 _306_
*845 _307_
*846 _308_
*847 _309_
*848 _310_
*849 _311_
*850 _312_
*851 _313_
*852 _314_
*853 _315_
*854 _316_
*855 _317_
*856 _318_
*857 _319_
*858 _320_
*859 _321_
*860 _322_
*861 _323_
*862 _324_
*863 _325_
*864 _326_
*865 _327_
*866 _328_
*867 _329_
*868 _330_
*869 _331_
*870 _332_
*871 _333_
*872 _334_
*873 _335_
*874 _336_
*875 _337_
*876 _338_
*877 _339_
*878 _340_
*879 _341_
*880 _342_
*881 _343_
*882 _344_
*883 _345_
*884 _346_
*885 _347_
*886 _348_
*887 _349_
*888 _350_
*889 _351_
*890 _352_
*891 _353_
*892 _354_
*893 _355_
*894 _356_
*895 _357_
*896 clkbuf_0_clk
*897 clkbuf_2_0__f_clk
*898 clkbuf_2_1__f_clk
*899 clkbuf_2_2__f_clk
*900 clkbuf_2_3__f_clk
*901 clkload0
*902 clkload1
*903 clkload2
*904 output1
*905 output2
*906 output3

*PORTS
clk I
count[0] O
count[1] O
count[2] O
reset I

*D_NET *3 0.00663953
*CONN
*P clk I
*I *896:A I *D sky130_fd_sc_hd__clkbuf_16
*CAP
1 clk 0.00199347
2 *896:A 0.00199347
3 *896:A *706:A 3.6343e-05
4 *896:A *768:B1 0
5 *896:A *895:RESET_B 2.06112e-05
6 *896:A *16:32 0.00069897
7 *896:A *63:16 0.000614165
8 *896:A *96:16 0.00107714
9 *896:A *188:46 0.000136816
10 *896:A *197:53 2.06112e-05
11 *896:A *205:59 4.79453e-05
*RES
1 clk *896:A 22.5033 
*END

*D_NET *4 0.000821672
*CONN
*P count[0] O
*I *904:X O *D sky130_fd_sc_hd__buf_1
*CAP
1 count[0] 0.000380864
2 *904:X 0.000380864
3 count[0] *904:A 5.99442e-05
*RES
1 *904:X count[0] 19.3371 
*END

*D_NET *5 0.000844096
*CONN
*P count[1] O
*I *905:X O *D sky130_fd_sc_hd__buf_1
*CAP
1 count[1] 0.000355672
2 *905:X 0.000355672
3 count[1] *8:12 0.000116612
4 count[1] *206:18 1.61393e-05
*RES
1 *905:X count[1] 21.1554 
*END

*D_NET *6 0.00091014
*CONN
*P count[2] O
*I *906:X O *D sky130_fd_sc_hd__buf_1
*CAP
1 count[2] 0.000382795
2 *906:X 0.000382795
3 count[2] *891:D 0
4 count[2] *146:30 9.56969e-05
5 count[2] *195:66 4.88537e-05
*RES
1 *906:X count[2] 19.3371 
*END

*D_NET *7 0.0159932
*CONN
*P reset I
*I *844:A I *D sky130_fd_sc_hd__buf_4
*I *833:A I *D sky130_fd_sc_hd__buf_4
*I *855:A I *D sky130_fd_sc_hd__buf_4
*CAP
1 reset 0.00110424
2 *844:A 0
3 *833:A 0.00231524
4 *855:A 0.000154056
5 *7:19 0.00322892
6 *7:7 0.00186387
7 *833:A *738:B 0.000131002
8 *833:A *815:B 0.000107093
9 *833:A *823:A2 0.000109339
10 *833:A *873:RESET_B 0
11 *833:A *890:RESET_B 4.79453e-05
12 *833:A *16:32 0.000979065
13 *833:A *19:32 2.43526e-05
14 *833:A *65:24 0.00273952
15 *833:A *95:36 0.000131002
16 *833:A *177:47 2.04745e-05
17 *833:A *179:68 9.45615e-05
18 *833:A *191:35 3.10194e-06
19 *855:A *838:A 7.63011e-05
20 *855:A *153:34 2.05612e-05
21 *7:7 *749:A 5.93525e-05
22 *7:7 *884:RESET_B 0
23 *7:7 *68:30 0
24 *7:7 *90:132 5.76779e-05
25 *7:7 *129:38 0
26 *7:7 *167:12 0.000230852
27 *7:19 *764:A 0.00123081
28 *7:19 *764:B 0.000561335
29 *7:19 *838:A 5.04841e-06
30 *7:19 *885:RESET_B 1.61337e-05
31 *7:19 *68:30 0
32 *7:19 *84:131 9.41642e-05
33 *7:19 *153:34 0.000351022
34 *7:19 *167:12 0.0002089
35 *7:19 *167:18 2.72602e-05
*RES
1 reset *7:7 20.1964 
2 *7:7 *7:19 24.25 
3 *7:19 *855:A 11.9071 
4 *7:19 *833:A 41.4767 
5 *7:7 *844:A 13.8 
*END

*D_NET *8 0.0162689
*CONN
*I *869:D I *D sky130_fd_sc_hd__dfrtp_4
*I *814:X O *D sky130_fd_sc_hd__buf_1
*CAP
1 *869:D 0.00140813
2 *814:X 0.000908894
3 *8:12 0.00271337
4 *8:8 0.00221413
5 *869:D *717:A 0.000137983
6 *869:D *717:B 0.000125443
7 *869:D *774:A 0.00196108
8 *869:D *869:CLK 0.000136938
9 *869:D *14:22 0
10 *869:D *47:20 0.000826575
11 *869:D *67:26 0
12 *869:D *195:66 0
13 *869:D *206:8 6.99934e-06
14 *8:8 *780:A1 0.000137983
15 *8:8 *780:A2 0.00050599
16 *8:8 *854:A 2.84026e-05
17 *8:8 *884:D 0
18 *8:8 *885:RESET_B 1.15281e-05
19 *8:8 *162:138 6.73342e-05
20 *8:12 *795:C 0
21 *8:12 *14:22 0
22 *8:12 *14:40 0.00173264
23 *8:12 *15:26 0.000353612
24 *8:12 *27:18 0
25 *8:12 *47:20 0.0028753
26 *8:12 *88:14 0
27 count[1] *8:12 0.000116612
*RES
1 *814:X *8:8 25.8357 
2 *8:8 *8:12 44.375 
3 *8:12 *869:D 47.3 
*END

*D_NET *9 0.00445144
*CONN
*I *879:D I *D sky130_fd_sc_hd__dfrtp_2
*I *750:X O *D sky130_fd_sc_hd__clkbuf_1
*CAP
1 *879:D 0
2 *750:X 0.000933675
3 *9:14 0.000933675
4 *9:14 *716:B 0
5 *9:14 *769:C 3.61917e-05
6 *9:14 *834:A 0.000186407
7 *9:14 *881:D 0.00110842
8 *9:14 *46:24 4.64488e-06
9 *9:14 *121:10 0.000518553
10 *9:14 *161:12 0.00030804
11 *9:14 *161:70 0.000162077
12 *9:14 *173:65 0.000219585
13 *9:14 *181:10 0
14 *9:14 *183:14 4.01768e-05
*RES
1 *750:X *9:14 45.6036 
2 *9:14 *879:D 9.3 
*END

*D_NET *10 0.00385402
*CONN
*I *880:D I *D sky130_fd_sc_hd__dfrtp_1
*I *755:X O *D sky130_fd_sc_hd__clkbuf_1
*CAP
1 *880:D 0.000587184
2 *755:X 0.000587184
3 *880:D *762:A_N 0.000972193
4 *880:D *773:B 0.000261283
5 *880:D *23:18 4.10926e-05
6 *880:D *161:8 6.06814e-05
7 *880:D *173:114 0.00026023
8 *880:D *182:6 9.94194e-05
9 *880:D *182:51 0.000984749
*RES
1 *755:X *880:D 35.9929 
*END

*D_NET *11 0.013521
*CONN
*I *881:D I *D sky130_fd_sc_hd__dfrtp_4
*I *759:X O *D sky130_fd_sc_hd__buf_1
*CAP
1 *881:D 0.000590996
2 *759:X 0.00270314
3 *11:34 0.00329414
4 *881:D *829:A 0.000132879
5 *881:D *834:A 0.000628112
6 *881:D *869:RESET_B 8.17663e-05
7 *881:D *880:RESET_B 0
8 *881:D *100:14 7.51769e-05
9 *881:D *109:20 1.81548e-05
10 *881:D *121:10 9.24495e-06
11 *881:D *155:14 0.000160771
12 *881:D *163:78 0.000403833
13 *881:D *181:50 0
14 *11:34 *737:A 0.00016437
15 *11:34 *791:A 6.62241e-05
16 *11:34 *873:RESET_B 8.89061e-05
17 *11:34 *881:RESET_B 0
18 *11:34 *892:RESET_B 0
19 *11:34 *22:24 0.000231948
20 *11:34 *68:63 0.000110892
21 *11:34 *73:32 3.02916e-05
22 *11:34 *76:28 0.000513716
23 *11:34 *83:101 0.000585899
24 *11:34 *84:92 0.000107188
25 *11:34 *88:14 0.000173035
26 *11:34 *88:30 2.16715e-05
27 *11:34 *100:14 0.000148484
28 *11:34 *126:20 5.32647e-05
29 *11:34 *144:16 0.000108735
30 *11:34 *155:14 1.4663e-05
31 *11:34 *164:34 9.58466e-05
32 *11:34 *171:16 0.000114028
33 *11:34 *172:16 0.00056446
34 *11:34 *172:56 0.000622361
35 *11:34 *174:97 6.60633e-06
36 *11:34 *177:47 3.67052e-05
37 *11:34 *184:14 4.65519e-05
38 *11:34 *184:37 5.90607e-05
39 *11:34 *198:33 4.8817e-05
40 *11:34 *199:53 0.000276537
41 *11:34 *200:18 2.40666e-05
42 *9:14 *881:D 0.00110842
*RES
1 *759:X *11:34 38.6199 
2 *11:34 *881:D 33.3625 
*END

*D_NET *12 0.00403988
*CONN
*I *882:D I *D sky130_fd_sc_hd__dfrtp_1
*I *763:X O *D sky130_fd_sc_hd__clkbuf_1
*CAP
1 *882:D 0
2 *763:X 0.00110104
3 *12:14 0.00110104
4 *12:14 *783:A 4.55127e-05
5 *12:14 *783:B 0.000135028
6 *12:14 *785:A_N 0
7 *12:14 *785:C 0.000711382
8 *12:14 *788:B 0.00022266
9 *12:14 *818:A 3.57844e-05
10 *12:14 *882:CLK 7.48091e-05
11 *12:14 *890:D 0.000173015
12 *12:14 *19:14 0.000167198
13 *12:14 *125:6 0.000135028
14 *12:14 *133:26 1.59782e-05
15 *12:14 *188:120 0
16 *12:14 *201:72 0.000121416
*RES
1 *763:X *12:14 41.8179 
2 *12:14 *882:D 9.3 
*END

*D_NET *13 0.00779152
*CONN
*I *883:D I *D sky130_fd_sc_hd__dfrtp_1
*I *765:X O *D sky130_fd_sc_hd__o211a_1
*CAP
1 *883:D 0
2 *765:X 0.000172969
3 *13:14 0.0013064
4 *13:8 0.00147936
5 *13:8 *777:B 0.00021846
6 *13:14 *709:B 7.36733e-05
7 *13:14 *709:C 0.000890563
8 *13:14 *764:B 0.00102882
9 *13:14 *791:A 0.000137785
10 *13:14 *796:B1 1.94879e-05
11 *13:14 *822:A 0.000432679
12 *13:14 *873:RESET_B 0
13 *13:14 *887:RESET_B 2.11419e-05
14 *13:14 *65:24 3.15282e-05
15 *13:14 *108:27 0.00106125
16 *13:14 *128:37 1.87955e-05
17 *13:14 *154:12 0.000144864
18 *13:14 *184:47 3.69194e-05
19 *13:14 *186:14 5.47589e-05
20 *13:14 *193:20 1.12323e-05
21 *13:14 *193:26 0.000566711
22 *13:14 *202:37 5.52238e-05
23 *13:14 *206:70 2.89016e-05
*RES
1 *765:X *13:8 15.9786 
2 *13:8 *13:14 41.2857 
3 *13:14 *883:D 9.3 
*END

*D_NET *14 0.0146219
*CONN
*I *884:D I *D sky130_fd_sc_hd__dfrtp_1
*I *770:X O *D sky130_fd_sc_hd__buf_1
*CAP
1 *884:D 0.000725939
2 *770:X 0.00128133
3 *14:40 0.00251527
4 *14:22 0.00307066
5 *884:D *718:A2 1.56e-05
6 *884:D *785:B 3.97657e-05
7 *884:D *785:C 3.48705e-05
8 *884:D *830:A1 0.000227539
9 *884:D *884:CLK 0.000226369
10 *884:D *890:CLK 0.000102395
11 *884:D *27:16 0.00138785
12 *884:D *70:62 0.000270257
13 *884:D *188:120 0.00027503
14 *884:D *201:31 5.52238e-05
15 *14:22 *751:B 3.99614e-06
16 *14:22 *752:D 0.000253008
17 *14:22 *795:C 8.80828e-05
18 *14:22 *88:14 0.000247561
19 *14:22 *109:20 7.02611e-05
20 *14:22 *122:26 1.86695e-05
21 *14:22 *195:66 0.000915158
22 *14:40 *756:A 0
23 *14:40 *889:RESET_B 0.000563085
24 *14:40 *904:A 0
25 *14:40 *45:22 0.00014761
26 *14:40 *88:14 0.00018747
27 *14:40 *122:26 0.000150193
28 *14:40 *201:90 0
29 *14:40 *206:18 1.60961e-05
30 *869:D *14:22 0
31 *8:8 *884:D 0
32 *8:12 *14:22 0
33 *8:12 *14:40 0.00173264
*RES
1 *770:X *14:22 45.0021 
2 *14:22 *14:40 49.7045 
3 *14:40 *884:D 34.9071 
*END

*D_NET *15 0.0209432
*CONN
*I *885:D I *D sky130_fd_sc_hd__dfrtp_1
*I *774:X O *D sky130_fd_sc_hd__buf_1
*CAP
1 *885:D 0.000169646
2 *774:X 0.00610022
3 *15:26 0.00626986
4 *885:D *885:CLK 0.000123961
5 *15:26 *714:B 0.00272878
6 *15:26 *717:A 7.14981e-06
7 *15:26 *876:RESET_B 0.000259591
8 *15:26 *883:RESET_B 4.53834e-05
9 *15:26 *884:RESET_B 0.000236627
10 *15:26 *904:A 8.40434e-05
11 *15:26 *46:24 0.000359274
12 *15:26 *47:20 0.00033866
13 *15:26 *67:26 0.00305638
14 *15:26 *133:26 0.000231743
15 *15:26 *146:30 0.000512898
16 *15:26 *175:64 4.33002e-05
17 *15:26 *195:66 2.21179e-05
18 *8:12 *15:26 0.000353612
*RES
1 *774:X *15:26 48.9648 
2 *15:26 *885:D 11.5366 
*END

*D_NET *16 0.0192835
*CONN
*I *886:D I *D sky130_fd_sc_hd__dfrtp_4
*I *778:X O *D sky130_fd_sc_hd__buf_1
*CAP
1 *886:D 0.000317238
2 *778:X 0.00544743
3 *16:32 0.00576467
4 *886:D *730:C 5.83677e-05
5 *886:D *93:8 4.05354e-05
6 *886:D *128:72 3.84016e-05
7 *16:32 *705:B 0.000857299
8 *16:32 *711:B 0
9 *16:32 *716:B 1.90936e-05
10 *16:32 *738:B 0.000153078
11 *16:32 *769:C 2.02794e-05
12 *16:32 *782:A 0.000104183
13 *16:32 *873:RESET_B 0.000307556
14 *16:32 *17:28 0.00106461
15 *16:32 *63:16 0.000234131
16 *16:32 *84:69 0.000110498
17 *16:32 *95:36 0.000360964
18 *16:32 *96:16 0.000171237
19 *16:32 *110:32 0
20 *16:32 *113:30 1.29975e-05
21 *16:32 *134:50 0.000147837
22 *16:32 *136:28 0.000324169
23 *16:32 *139:12 0.000159968
24 *16:32 *169:16 0.000305972
25 *16:32 *179:68 0.000598489
26 *16:32 *180:79 0.000221796
27 *16:32 *184:37 0.000660594
28 *16:32 *205:14 0.000104056
29 *833:A *16:32 0.000979065
30 *896:A *16:32 0.00069897
*RES
1 *778:X *16:32 49.5924 
2 *16:32 *886:D 19.5411 
*END

*D_NET *17 0.00917338
*CONN
*I *887:D I *D sky130_fd_sc_hd__dfrtp_1
*I *782:X O *D sky130_fd_sc_hd__clkbuf_1
*CAP
1 *887:D 0
2 *782:X 0.00204774
3 *17:28 0.00204774
4 *17:28 *711:B 2.55264e-05
5 *17:28 *776:A 6.07555e-05
6 *17:28 *782:A 3.07555e-05
7 *17:28 *792:B 6.54117e-05
8 *17:28 *865:A 1.90507e-05
9 *17:28 *873:RESET_B 0.00168161
10 *17:28 *19:32 6.5057e-05
11 *17:28 *52:16 0.00029176
12 *17:28 *84:131 4.31193e-05
13 *17:28 *88:30 2.3158e-05
14 *17:28 *91:12 0.000547001
15 *17:28 *136:28 0.000203152
16 *17:28 *154:12 0.000138303
17 *17:28 *163:97 0.000102362
18 *17:28 *169:16 6.97269e-05
19 *17:28 *175:27 0.000122934
20 *17:28 *175:40 8.6229e-06
21 *17:28 *178:66 1.36734e-05
22 *17:28 *179:68 0.000144012
23 *17:28 *182:51 5.72005e-05
24 *17:28 *184:37 0.000262585
25 *17:28 *200:18 3.75182e-05
26 *16:32 *17:28 0.00106461
*RES
1 *782:X *17:28 46.5646 
2 *17:28 *887:D 13.8 
*END

*D_NET *18 0.00401132
*CONN
*I *888:D I *D sky130_fd_sc_hd__dfrtp_2
*I *786:X O *D sky130_fd_sc_hd__clkbuf_1
*CAP
1 *888:D 0.000977115
2 *786:X 0.000977115
3 *888:D *207:DIODE 7.34839e-05
4 *888:D *702:A 0.000178425
5 *888:D *702:C 0.000117167
6 *888:D *702:D 1.21258e-05
7 *888:D *709:C 3.18689e-05
8 *888:D *735:A_N 9.41642e-05
9 *888:D *735:B 0.000185006
10 *888:D *816:A 5.33005e-05
11 *888:D *816:B 4.17221e-05
12 *888:D *874:RESET_B 1.47972e-05
13 *888:D *888:CLK 5.49489e-05
14 *888:D *40:32 0.000149216
15 *888:D *89:22 0.000634797
16 *888:D *100:14 0.000145468
17 *888:D *134:40 6.57032e-05
18 *888:D *171:16 0.000147056
19 *888:D *199:53 5.78426e-05
*RES
1 *786:X *888:D 47.4571 
*END

*D_NET *19 0.0188998
*CONN
*I *870:D I *D sky130_fd_sc_hd__dfrtp_4
*I *818:X O *D sky130_fd_sc_hd__buf_1
*CAP
1 *870:D 0
2 *818:X 0.0010384
3 *19:32 0.00406349
4 *19:14 0.00510189
5 *19:14 *718:A2 8.33274e-05
6 *19:14 *734:A 2.42516e-05
7 *19:14 *734:B 9.41642e-05
8 *19:14 *785:C 0.000407929
9 *19:14 *818:A 0.000633511
10 *19:14 *88:14 7.85109e-05
11 *19:32 *808:A 4.04042e-05
12 *19:32 *866:D 0.000135483
13 *19:32 *870:CLK 2.59355e-05
14 *19:32 *876:RESET_B 0.00173705
15 *19:32 *898:A 0.000209779
16 *19:32 *22:24 0.00035678
17 *19:32 *27:18 0.00221601
18 *19:32 *40:32 5.33005e-05
19 *19:32 *47:20 0.000264543
20 *19:32 *67:26 0.000232063
21 *19:32 *84:69 3.64156e-05
22 *19:32 *88:14 0
23 *19:32 *116:53 1.24162e-05
24 *19:32 *133:26 0.000125623
25 *19:32 *134:26 8.01377e-05
26 *19:32 *173:114 0.00013228
27 *19:32 *183:50 9.06074e-05
28 *19:32 *191:35 7.06369e-05
29 *19:32 *199:53 0.00083072
30 *19:32 *200:18 0
31 *19:32 *205:59 0.000467579
32 *833:A *19:32 2.43526e-05
33 *12:14 *19:14 0.000167198
34 *17:28 *19:32 6.5057e-05
*RES
1 *818:X *19:14 41.1036 
2 *19:14 *19:32 48.5433 
3 *19:32 *870:D 9.3 
*END

*D_NET *20 0.00812122
*CONN
*I *889:D I *D sky130_fd_sc_hd__dfrtp_1
*I *790:X O *D sky130_fd_sc_hd__clkbuf_1
*CAP
1 *889:D 0.000491714
2 *790:X 0.000947023
3 *20:14 0.00143874
4 *889:D *703:C 0.000365573
5 *889:D *889:CLK 6.94952e-05
6 *889:D *893:D 0.000100832
7 *889:D *900:A 3.10885e-05
8 *889:D *81:12 0.000120975
9 *889:D *107:10 1.90484e-05
10 *889:D *143:16 0.000109676
11 *889:D *167:41 0.000222346
12 *889:D *184:14 0.000511089
13 *20:14 *895:CLK 6.82912e-05
14 *20:14 *895:RESET_B 0.000170943
15 *20:14 *102:50 0.000139687
16 *20:14 *102:54 0.00032731
17 *20:14 *105:91 0.00187078
18 *20:14 *107:10 0.00106332
19 *20:14 *198:8 5.33005e-05
*RES
1 *790:X *20:14 41.9071 
2 *20:14 *889:D 27.8714 
*END

*D_NET *21 0.001341
*CONN
*I *890:D I *D sky130_fd_sc_hd__dfrtp_2
*I *794:X O *D sky130_fd_sc_hd__clkbuf_1
*CAP
1 *890:D 0.000501357
2 *794:X 0.000501357
3 *890:D *145:12 0.000165269
4 *12:14 *890:D 0.000173015
*RES
1 *794:X *890:D 36.5464 
*END

*D_NET *22 0.0205328
*CONN
*I *891:D I *D sky130_fd_sc_hd__dfrtp_1
*I *798:X O *D sky130_fd_sc_hd__buf_1
*CAP
1 *891:D 0.00136327
2 *798:X 0.00508674
3 *22:24 0.00645002
4 *891:D *743:C 2.85234e-05
5 *891:D *799:B 0.000968564
6 *891:D *876:RESET_B 0.000354655
7 *891:D *891:RESET_B 0.000197868
8 *891:D *34:16 0.000110655
9 *891:D *47:20 0.00100204
10 *891:D *105:52 9.67529e-05
11 *891:D *137:22 1.35465e-05
12 *891:D *195:66 0
13 *891:D *206:18 0
14 *22:24 *703:D 4.99283e-06
15 *22:24 *705:A 0